
Checking parameters for BSIM 4.8 model xm1:sky130_fd_pr__nfet_01v8_lvt__model.1
Warning: Eta0 = -0.122478 is negative.
Warning: TNOIMOD=1 is not supported and may be removed from future version.

Note: No compatibility mode selected!


Circuit: * nmos id–vgs sweep (sky130) 

Doing analysis at TEMP = -196.150000 and TNOM = 27.000000

 Reference value :  0.00000e+00/home/oliviag/ngspice-skywater-sims/nfet_mod/l_0p19_w_7p0
/home/oliviag/ngspice-skywater-sims/nfet_mod/l_0p19_w_7p0
/home/oliviag/ngspice-skywater-sims/nfet_mod/l_0p19_w_7p0

No. of Data Rows : 2046
 BSIM4: Berkeley Short Channel IGFET Model-4
     device m.xm1.msky130_fd_pr__
      model xm1:sky130_fd_pr__nfe
          l               1.9e-07
          w                 7e-06
          m                     1
         nf                     1
         sa                     0
         sb                     0
         sd                     0
        sca                     0
        scb                     0
        scc                     0
         sc                     0
        min                     0
         ad              2.03e-12
         as              2.03e-12
         pd             1.458e-05
         ps             1.458e-05
        nrd             0.0414286
        nrs             0.0414286
        off                     0
       rbdb                    50
       rbsb                    50
       rbpb                    50
       rbps                    50
       rbpd                    50
     delvto                     0
      mulu0                     1
        xgw                     0
      ngcon                     1
     wnflag                     0
   trnqsmod                     0
   acnqsmod                     0
   rbodymod                     1
   rgatemod                     0
     geomod                     0
    rgeomod                     0
       gmbs           0.000619655
         gm             0.0041318
        gds            0.00024446
      vdsat              0.233657
        vth              0.668837
         id            0.00483124
        ibd          -1.85995e-12
        ibs           -4.1537e-16
        gbd                 1e-12
        gbs           2.15851e-12
       isub           7.09661e-07
      igidl                     0
      igisl                     0
        igs                     0
        igd                     0
        igb                     0
       igcs                     0
       igcd                     0
        vbs           -0.00018241
        vgs                1.8498
        vds                1.8496
        cgg           7.46897e-15
        cgs          -6.29298e-15
        cgd          -2.24617e-18
        cbg          -1.35339e-15
        cbd          -1.80641e-18
        cbs          -8.25787e-16
        cdg          -2.44787e-15
        cdd           3.26009e-18
        cds           2.84762e-15
        csg          -3.66772e-15
        csd           7.92491e-19
        css           4.27114e-15
        cgb          -1.17375e-15
        cdb          -4.03019e-16
        csb          -6.04211e-16
        cbb           2.18098e-15
      capbd           2.17485e-15
      capbs           3.94864e-15
         qg           1.48779e-14
         qb          -6.91148e-15
         qd          -3.18751e-15
         qs          -4.77888e-15
       qinv                     0
       qdef                     0
       gcrg                     0
       gtau                     0








List of plots available:

Current dc1	* nmos id–vgs sweep (sky130)  (DC transfer characteristic)
	const	Constant values (constants)
Here are the vectors currently active:

Title: * nmos id–vgs sweep (sky130) 
Name: dc1 (DC transfer characteristic)
Date: Wed Jun 24 18:06:42  2026

    gate                : voltage, real, 2046 long
    m.xm1.msky130_fd_pr__nfet_01v8_lvt#body: voltage, real, 2046 long
    m.xm1.msky130_fd_pr__nfet_01v8_lvt#dbody: voltage, real, 2046 long
    m.xm1.msky130_fd_pr__nfet_01v8_lvt#sbody: voltage, real, 2046 long
    v-sweep             : voltage, real, 2046 long [default scale]
    vdd                 : voltage, real, 2046 long
    vds#branch          : current, real, 2046 long
    vgs#branch          : current, real, 2046 long
Reset re-loads circuit * nmos id–vgs sweep (sky130) 

Circuit: * nmos id–vgs sweep (sky130) 

Doing analysis at TEMP = -196.150000 and TNOM = 27.000000


No. of Data Rows : 186
List of plots available:

Current dc2	* nmos id–vgs sweep (sky130)  (DC transfer characteristic)
	dc1	* nmos id–vgs sweep (sky130)  (DC transfer characteristic)
	const	Constant values (constants)
Here are the vectors currently active:

Title: * nmos id–vgs sweep (sky130) 
Name: dc2 (DC transfer characteristic)
Date: Wed Jun 24 18:06:42  2026

    gate                : voltage, real, 186 long
    m.xm1.msky130_fd_pr__nfet_01v8_lvt#body: voltage, real, 186 long
    m.xm1.msky130_fd_pr__nfet_01v8_lvt#dbody: voltage, real, 186 long
    m.xm1.msky130_fd_pr__nfet_01v8_lvt#sbody: voltage, real, 186 long
    v-sweep             : voltage, real, 186 long [default scale]
    vdd                 : voltage, real, 186 long
    vds#branch          : current, real, 186 long
    vgs#branch          : current, real, 186 long
Reset re-loads circuit * nmos id–vgs sweep (sky130) 

Circuit: * nmos id–vgs sweep (sky130) 

Doing analysis at TEMP = -196.150000 and TNOM = 27.000000


No. of Data Rows : 2046
List of plots available:

Current dc3	* nmos id–vgs sweep (sky130)  (DC transfer characteristic)
	dc2	* nmos id–vgs sweep (sky130)  (DC transfer characteristic)
	dc1	* nmos id–vgs sweep (sky130)  (DC transfer characteristic)
	const	Constant values (constants)
Here are the vectors currently active:

Title: * nmos id–vgs sweep (sky130) 
Name: dc3 (DC transfer characteristic)
Date: Wed Jun 24 18:06:42  2026

    gate                : voltage, real, 2046 long
    m.xm1.msky130_fd_pr__nfet_01v8_lvt#body: voltage, real, 2046 long
    m.xm1.msky130_fd_pr__nfet_01v8_lvt#dbody: voltage, real, 2046 long
    m.xm1.msky130_fd_pr__nfet_01v8_lvt#sbody: voltage, real, 2046 long
    v-sweep             : voltage, real, 2046 long [default scale]
    vdd                 : voltage, real, 2046 long
    vds#branch          : current, real, 2046 long
    vgs#branch          : current, real, 2046 long
Note: Simulation executed from .control section 
