Warning: strange file type "csv" (using "ascii")

Checking parameters for BSIM 4.8 model xm1:sky130_fd_pr__nfet_01v8_lvt__model.2
Warning: Eta0 = -0.0601701 is negative.
Warning: TNOIMOD=1 is not supported and may be removed from future version.
Warning: strange file type "csv" (using "ascii")

Note: No compatibility mode selected!


Circuit: * nmos sweep (sky130) 

Doing analysis at TEMP = -196.150000 and TNOM = 27.000000

 MONTE CARLO RUN: 0
Doing analysis at TEMP = -196.150000 and TNOM = 27.000000

 Reference value :  0.00000e+00Error: no such vector vth0
Warning: strange file type "csv" (using "ascii")
Warning: strange file type "csv" (using "ascii")
Warning: strange file type "csv" (using "ascii")
Error: no such vector vth0
Warning: strange file type "csv" (using "ascii")
Warning: strange file type "csv" (using "ascii")
Warning: strange file type "csv" (using "ascii")

No. of Data Rows : 2046
 BSIM4 models (Berkeley Short Channel IGFET Model-4)
      model xm1:sky130_fd_pr__nfe

       vth0              0.801021
         u0             0.0442821
       rdsw               100.279
    nfactor               37.6019
       vsat                217546
       eta0              -0.21946
      delta             0.0533214

Doing analysis at TEMP = -196.150000 and TNOM = 27.000000


No. of Data Rows : 186
Doing analysis at TEMP = -196.150000 and TNOM = 27.000000


No. of Data Rows : 2046
Reset re-loads circuit * nmos sweep (sky130) 

Circuit: * nmos sweep (sky130) 

 MONTE CARLO RUN: 1
Doing analysis at TEMP = -196.150000 and TNOM = 27.000000


No. of Data Rows : 2046
 BSIM4 models (Berkeley Short Channel IGFET Model-4)
      model xm1:sky130_fd_pr__nfe

       vth0              0.801021
         u0             0.0442821
       rdsw               100.279
    nfactor               37.6019
       vsat                217546
       eta0              -0.21946
      delta             0.0533214

Doing analysis at TEMP = -196.150000 and TNOM = 27.000000


No. of Data Rows : 186
Doing analysis at TEMP = -196.150000 and TNOM = 27.000000


No. of Data Rows : 2046
Reset re-loads circuit * nmos sweep (sky130) 

Circuit: * nmos sweep (sky130) 

 MONTE CARLO RUN: 2
Doing analysis at TEMP = -196.150000 and TNOM = 27.000000

 Reference value :  1.59000e+00Error: no such vector vth0
Warning: strange file type "csv" (using "ascii")
Warning: strange file type "csv" (using "ascii")

No. of Data Rows : 2046
 BSIM4 models (Berkeley Short Channel IGFET Model-4)
      model xm1:sky130_fd_pr__nfe

       vth0              0.801021
         u0             0.0442821
       rdsw               100.279
    nfactor               37.6019
       vsat                217546
       eta0              -0.21946
      delta             0.0533214

Doing analysis at TEMP = -196.150000 and TNOM = 27.000000


No. of Data Rows : 186
Doing analysis at TEMP = -196.150000 and TNOM = 27.000000


No. of Data Rows : 2046
Reset re-loads circuit * nmos sweep (sky130) 

Circuit: * nmos sweep (sky130) 

ngspice-41 done
