
Checking parameters for BSIM 4.8 model xm1:sky130_fd_pr__pfet_01v8_lvt__model.5
Warning: TNOIMOD=1 is not supported and may be removed from future version.

Note: No compatibility mode selected!


Circuit: * ngspice circuit simulation

Doing analysis at TEMP = 27.000000 and TNOM = -196.150000

 Reference value :  1.85000e+00
No. of Data Rows : 186
Doing analysis at TEMP = 27.000000 and TNOM = -196.150000


No. of Data Rows : 186
Doing analysis at TEMP = 27.000000 and TNOM = -196.150000


No. of Data Rows : 186
Doing analysis at TEMP = 27.000000 and TNOM = -196.150000


No. of Data Rows : 186
Doing analysis at TEMP = 27.000000 and TNOM = -196.150000


No. of Data Rows : 186
Doing analysis at TEMP = 27.000000 and TNOM = -196.150000


No. of Data Rows : 186
Note: Simulation executed from .control section 
