
Checking parameters for BSIM 4.8 model xm1:sky130_fd_pr__pfet_01v8_lvt__model.9
Warning: TNOIMOD=1 is not supported and may be removed from future version.

Note: No compatibility mode selected!


Circuit: * pmos id–vgs sweep (sky130) 

Doing analysis at TEMP = -196.150000 and TNOM = 27.000000

 Reference value :  0.00000e+00 Reference value : -1.49000e+00/home/oliviag/ngspice-skywater-sims/pfet_mod/l_0p35_w_5p0

No. of Data Rows : 1860
List of plots available:

Current dc1	* pmos id–vgs sweep (sky130)  (DC transfer characteristic)
	const	Constant values (constants)
Here are the vectors currently active:

Title: * pmos id–vgs sweep (sky130) 
Name: dc1 (DC transfer characteristic)
Date: Wed Jun 17 17:24:34  2026

    gate                : voltage, real, 1860 long
    m.xm1.msky130_fd_pr__pfet_01v8_lvt#body: voltage, real, 1860 long
    m.xm1.msky130_fd_pr__pfet_01v8_lvt#dbody: voltage, real, 1860 long
    m.xm1.msky130_fd_pr__pfet_01v8_lvt#sbody: voltage, real, 1860 long
    v-sweep             : voltage, real, 1860 long [default scale]
    vdd                 : voltage, real, 1860 long
    vds#branch          : current, real, 1860 long
    vgs#branch          : current, real, 1860 long
Reset re-loads circuit * pmos id–vgs sweep (sky130) 

Circuit: * pmos id–vgs sweep (sky130) 

Doing analysis at TEMP = -196.150000 and TNOM = 27.000000

 Reference value : -2.80000e-01/home/oliviag/ngspice-skywater-sims/pfet_mod/l_0p35_w_5p0

No. of Data Rows : 1991
List of plots available:

Current dc2	* pmos id–vgs sweep (sky130)  (DC transfer characteristic)
	dc1	* pmos id–vgs sweep (sky130)  (DC transfer characteristic)
	const	Constant values (constants)
Here are the vectors currently active:

Title: * pmos id–vgs sweep (sky130) 
Name: dc2 (DC transfer characteristic)
Date: Wed Jun 17 17:24:34  2026

    gate                : voltage, real, 1991 long
    m.xm1.msky130_fd_pr__pfet_01v8_lvt#body: voltage, real, 1991 long
    m.xm1.msky130_fd_pr__pfet_01v8_lvt#dbody: voltage, real, 1991 long
    m.xm1.msky130_fd_pr__pfet_01v8_lvt#sbody: voltage, real, 1991 long
    v-sweep             : voltage, real, 1991 long [default scale]
    vdd                 : voltage, real, 1991 long
    vds#branch          : current, real, 1991 long
    vgs#branch          : current, real, 1991 long
Note: Simulation executed from .control section 
