Warning: strange file type "csv" (using "ascii")
Warning: strange file type "csv" (using "ascii")

Note: No compatibility mode selected!


Circuit: * nmos sweep (sky130) 

Doing analysis at TEMP = -196.150000 and TNOM = 27.000000

 MONTE CARLO RUN: 0
Reset re-loads circuit * nmos sweep (sky130) 

Circuit: * nmos sweep (sky130) 

Doing analysis at TEMP = -196.150000 and TNOM = 27.000000

 Reference value :  0.00000e+00Warning: strange file type "csv" (using "ascii")
Warning: strange file type "csv" (using "ascii")
Warning: strange file type "csv" (using "ascii")
Warning: strange file type "csv" (using "ascii")
Warning: strange file type "csv" (using "ascii")
Warning: strange file type "csv" (using "ascii")
Warning: strange file type "csv" (using "ascii")
Warning: strange file type "csv" (using "ascii")

No. of Data Rows : 186
Doing analysis at TEMP = -196.150000 and TNOM = 27.000000


No. of Data Rows : 186
 MONTE CARLO RUN: 1
Reset re-loads circuit * nmos sweep (sky130) 

Circuit: * nmos sweep (sky130) 

Doing analysis at TEMP = -196.150000 and TNOM = 27.000000


No. of Data Rows : 186
Doing analysis at TEMP = -196.150000 and TNOM = 27.000000


No. of Data Rows : 186
 MONTE CARLO RUN: 2
Reset re-loads circuit * nmos sweep (sky130) 

Circuit: * nmos sweep (sky130) 

Doing analysis at TEMP = -196.150000 and TNOM = 27.000000


No. of Data Rows : 186
Doing analysis at TEMP = -196.150000 and TNOM = 27.000000


No. of Data Rows : 186
 MONTE CARLO RUN: 3
Reset re-loads circuit * nmos sweep (sky130) 

Circuit: * nmos sweep (sky130) 

Doing analysis at TEMP = -196.150000 and TNOM = 27.000000


No. of Data Rows : 186
Doing analysis at TEMP = -196.150000 and TNOM = 27.000000


No. of Data Rows : 186
 MONTE CARLO RUN: 4
Reset re-loads circuit * nmos sweep (sky130) 

Circuit: * nmos sweep (sky130) 

Doing analysis at TEMP = -196.150000 and TNOM = 27.000000

 Reference value :  0.00000e+00Warning: strange file type "csv" (using "ascii")
Warning: strange file type "csv" (using "ascii")
Warning: strange file type "csv" (using "ascii")
Warning: strange file type "csv" (using "ascii")
Warning: strange file type "csv" (using "ascii")
Warning: strange file type "csv" (using "ascii")
Warning: strange file type "csv" (using "ascii")
Warning: strange file type "csv" (using "ascii")

No. of Data Rows : 186
Doing analysis at TEMP = -196.150000 and TNOM = 27.000000


No. of Data Rows : 186
 MONTE CARLO RUN: 5
Reset re-loads circuit * nmos sweep (sky130) 

Circuit: * nmos sweep (sky130) 

Doing analysis at TEMP = -196.150000 and TNOM = 27.000000


No. of Data Rows : 186
Doing analysis at TEMP = -196.150000 and TNOM = 27.000000


No. of Data Rows : 186
 MONTE CARLO RUN: 6
Reset re-loads circuit * nmos sweep (sky130) 

Circuit: * nmos sweep (sky130) 

Doing analysis at TEMP = -196.150000 and TNOM = 27.000000


No. of Data Rows : 186
Doing analysis at TEMP = -196.150000 and TNOM = 27.000000


No. of Data Rows : 186
 MONTE CARLO RUN: 7
Reset re-loads circuit * nmos sweep (sky130) 

Circuit: * nmos sweep (sky130) 

Doing analysis at TEMP = -196.150000 and TNOM = 27.000000


No. of Data Rows : 186
Doing analysis at TEMP = -196.150000 and TNOM = 27.000000


No. of Data Rows : 186
 MONTE CARLO RUN: 8
Reset re-loads circuit * nmos sweep (sky130) 

Circuit: * nmos sweep (sky130) 

Doing analysis at TEMP = -196.150000 and TNOM = 27.000000

 Reference value :  0.00000e+00Warning: strange file type "csv" (using "ascii")
Warning: strange file type "csv" (using "ascii")
Warning: strange file type "csv" (using "ascii")
Warning: strange file type "csv" (using "ascii")
Warning: strange file type "csv" (using "ascii")
Warning: strange file type "csv" (using "ascii")
Warning: strange file type "csv" (using "ascii")
Warning: strange file type "csv" (using "ascii")

No. of Data Rows : 186
Doing analysis at TEMP = -196.150000 and TNOM = 27.000000


No. of Data Rows : 186
 MONTE CARLO RUN: 9
Reset re-loads circuit * nmos sweep (sky130) 

Circuit: * nmos sweep (sky130) 

Doing analysis at TEMP = -196.150000 and TNOM = 27.000000


No. of Data Rows : 186
Doing analysis at TEMP = -196.150000 and TNOM = 27.000000


No. of Data Rows : 186
 MONTE CARLO RUN: 10
Reset re-loads circuit * nmos sweep (sky130) 

Circuit: * nmos sweep (sky130) 

Doing analysis at TEMP = -196.150000 and TNOM = 27.000000


No. of Data Rows : 186
Doing analysis at TEMP = -196.150000 and TNOM = 27.000000


No. of Data Rows : 186
 MONTE CARLO RUN: 11
Reset re-loads circuit * nmos sweep (sky130) 

Circuit: * nmos sweep (sky130) 

Doing analysis at TEMP = -196.150000 and TNOM = 27.000000


No. of Data Rows : 186
Doing analysis at TEMP = -196.150000 and TNOM = 27.000000


No. of Data Rows : 186
 MONTE CARLO RUN: 12
Reset re-loads circuit * nmos sweep (sky130) 

Circuit: * nmos sweep (sky130) 

Doing analysis at TEMP = -196.150000 and TNOM = 27.000000

 Reference value :  0.00000e+00Warning: strange file type "csv" (using "ascii")
Warning: strange file type "csv" (using "ascii")
Warning: strange file type "csv" (using "ascii")
Warning: strange file type "csv" (using "ascii")
Warning: strange file type "csv" (using "ascii")
Warning: strange file type "csv" (using "ascii")
Warning: strange file type "csv" (using "ascii")
Warning: strange file type "csv" (using "ascii")

No. of Data Rows : 186
Doing analysis at TEMP = -196.150000 and TNOM = 27.000000


No. of Data Rows : 186
 MONTE CARLO RUN: 13
Reset re-loads circuit * nmos sweep (sky130) 

Circuit: * nmos sweep (sky130) 

Doing analysis at TEMP = -196.150000 and TNOM = 27.000000


No. of Data Rows : 186
Doing analysis at TEMP = -196.150000 and TNOM = 27.000000


No. of Data Rows : 186
 MONTE CARLO RUN: 14
Reset re-loads circuit * nmos sweep (sky130) 

Circuit: * nmos sweep (sky130) 

Doing analysis at TEMP = -196.150000 and TNOM = 27.000000


No. of Data Rows : 186
Doing analysis at TEMP = -196.150000 and TNOM = 27.000000


No. of Data Rows : 186
 MONTE CARLO RUN: 15
Reset re-loads circuit * nmos sweep (sky130) 

Circuit: * nmos sweep (sky130) 

Doing analysis at TEMP = -196.150000 and TNOM = 27.000000


No. of Data Rows : 186
Doing analysis at TEMP = -196.150000 and TNOM = 27.000000


No. of Data Rows : 186
 MONTE CARLO RUN: 16
Reset re-loads circuit * nmos sweep (sky130) 

Circuit: * nmos sweep (sky130) 

Doing analysis at TEMP = -196.150000 and TNOM = 27.000000

 Reference value :  0.00000e+00Warning: strange file type "csv" (using "ascii")
Warning: strange file type "csv" (using "ascii")
Warning: strange file type "csv" (using "ascii")
Warning: strange file type "csv" (using "ascii")
Warning: strange file type "csv" (using "ascii")
Warning: strange file type "csv" (using "ascii")
Warning: strange file type "csv" (using "ascii")

No. of Data Rows : 186
Doing analysis at TEMP = -196.150000 and TNOM = 27.000000


No. of Data Rows : 186
 MONTE CARLO RUN: 17
Reset re-loads circuit * nmos sweep (sky130) 

Circuit: * nmos sweep (sky130) 

Doing analysis at TEMP = -196.150000 and TNOM = 27.000000


No. of Data Rows : 186
Doing analysis at TEMP = -196.150000 and TNOM = 27.000000


No. of Data Rows : 186
 MONTE CARLO RUN: 18
Reset re-loads circuit * nmos sweep (sky130) 

Circuit: * nmos sweep (sky130) 

Doing analysis at TEMP = -196.150000 and TNOM = 27.000000


No. of Data Rows : 186
Doing analysis at TEMP = -196.150000 and TNOM = 27.000000


No. of Data Rows : 186
 MONTE CARLO RUN: 19
Reset re-loads circuit * nmos sweep (sky130) 

Circuit: * nmos sweep (sky130) 

Doing analysis at TEMP = -196.150000 and TNOM = 27.000000


No. of Data Rows : 186
Doing analysis at TEMP = -196.150000 and TNOM = 27.000000

 Reference value :  0.00000e+00Warning: strange file type "csv" (using "ascii")
Warning: strange file type "csv" (using "ascii")
Warning: strange file type "csv" (using "ascii")
Warning: strange file type "csv" (using "ascii")
Warning: strange file type "csv" (using "ascii")

No. of Data Rows : 186
 MONTE CARLO RUN: 20
Reset re-loads circuit * nmos sweep (sky130) 

Circuit: * nmos sweep (sky130) 

Doing analysis at TEMP = -196.150000 and TNOM = 27.000000


No. of Data Rows : 186
Doing analysis at TEMP = -196.150000 and TNOM = 27.000000


No. of Data Rows : 186
 MONTE CARLO RUN: 21
Reset re-loads circuit * nmos sweep (sky130) 

Circuit: * nmos sweep (sky130) 

Doing analysis at TEMP = -196.150000 and TNOM = 27.000000


No. of Data Rows : 186
Doing analysis at TEMP = -196.150000 and TNOM = 27.000000


No. of Data Rows : 186
 MONTE CARLO RUN: 22
Reset re-loads circuit * nmos sweep (sky130) 

Circuit: * nmos sweep (sky130) 

Doing analysis at TEMP = -196.150000 and TNOM = 27.000000

 Reference value :  1.79000e+00Warning: strange file type "csv" (using "ascii")
Warning: strange file type "csv" (using "ascii")
Warning: strange file type "csv" (using "ascii")
Warning: strange file type "csv" (using "ascii")
Warning: strange file type "csv" (using "ascii")
Warning: strange file type "csv" (using "ascii")

No. of Data Rows : 186
Doing analysis at TEMP = -196.150000 and TNOM = 27.000000


No. of Data Rows : 186
 MONTE CARLO RUN: 23
Reset re-loads circuit * nmos sweep (sky130) 

Circuit: * nmos sweep (sky130) 

Doing analysis at TEMP = -196.150000 and TNOM = 27.000000


No. of Data Rows : 186
Doing analysis at TEMP = -196.150000 and TNOM = 27.000000


No. of Data Rows : 186
 MONTE CARLO RUN: 24
Reset re-loads circuit * nmos sweep (sky130) 

Circuit: * nmos sweep (sky130) 

Doing analysis at TEMP = -196.150000 and TNOM = 27.000000


No. of Data Rows : 186
Doing analysis at TEMP = -196.150000 and TNOM = 27.000000


No. of Data Rows : 186
 MONTE CARLO RUN: 25
Reset re-loads circuit * nmos sweep (sky130) 

Circuit: * nmos sweep (sky130) 

Doing analysis at TEMP = -196.150000 and TNOM = 27.000000

 Reference value :  1.33000e+00Warning: strange file type "csv" (using "ascii")
Warning: strange file type "csv" (using "ascii")
Warning: strange file type "csv" (using "ascii")
Warning: strange file type "csv" (using "ascii")
Warning: strange file type "csv" (using "ascii")
Warning: strange file type "csv" (using "ascii")

No. of Data Rows : 186
Doing analysis at TEMP = -196.150000 and TNOM = 27.000000


No. of Data Rows : 186
 MONTE CARLO RUN: 26
Reset re-loads circuit * nmos sweep (sky130) 

Circuit: * nmos sweep (sky130) 

Doing analysis at TEMP = -196.150000 and TNOM = 27.000000


No. of Data Rows : 186
Doing analysis at TEMP = -196.150000 and TNOM = 27.000000


No. of Data Rows : 186
 MONTE CARLO RUN: 27
Reset re-loads circuit * nmos sweep (sky130) 

Circuit: * nmos sweep (sky130) 

Doing analysis at TEMP = -196.150000 and TNOM = 27.000000


No. of Data Rows : 186
Doing analysis at TEMP = -196.150000 and TNOM = 27.000000


No. of Data Rows : 186
 MONTE CARLO RUN: 28
Reset re-loads circuit * nmos sweep (sky130) 

Circuit: * nmos sweep (sky130) 

Doing analysis at TEMP = -196.150000 and TNOM = 27.000000

 Reference value :  0.00000e+00Warning: strange file type "csv" (using "ascii")
Warning: strange file type "csv" (using "ascii")
Warning: strange file type "csv" (using "ascii")
Warning: strange file type "csv" (using "ascii")
Warning: strange file type "csv" (using "ascii")
Warning: strange file type "csv" (using "ascii")

No. of Data Rows : 186
Doing analysis at TEMP = -196.150000 and TNOM = 27.000000


No. of Data Rows : 186
 MONTE CARLO RUN: 29
Reset re-loads circuit * nmos sweep (sky130) 

Circuit: * nmos sweep (sky130) 

Doing analysis at TEMP = -196.150000 and TNOM = 27.000000


No. of Data Rows : 186
Doing analysis at TEMP = -196.150000 and TNOM = 27.000000


No. of Data Rows : 186
 MONTE CARLO RUN: 30
Reset re-loads circuit * nmos sweep (sky130) 

Circuit: * nmos sweep (sky130) 

Doing analysis at TEMP = -196.150000 and TNOM = 27.000000


No. of Data Rows : 186
Doing analysis at TEMP = -196.150000 and TNOM = 27.000000


No. of Data Rows : 186
 MONTE CARLO RUN: 31
Reset re-loads circuit * nmos sweep (sky130) 

Circuit: * nmos sweep (sky130) 

Doing analysis at TEMP = -196.150000 and TNOM = 27.000000

 Reference value :  0.00000e+00Warning: strange file type "csv" (using "ascii")
Warning: strange file type "csv" (using "ascii")
Warning: strange file type "csv" (using "ascii")
Warning: strange file type "csv" (using "ascii")
Warning: strange file type "csv" (using "ascii")
Warning: strange file type "csv" (using "ascii")

No. of Data Rows : 186
Doing analysis at TEMP = -196.150000 and TNOM = 27.000000


No. of Data Rows : 186
 MONTE CARLO RUN: 32
Reset re-loads circuit * nmos sweep (sky130) 

Circuit: * nmos sweep (sky130) 

Doing analysis at TEMP = -196.150000 and TNOM = 27.000000


No. of Data Rows : 186
Doing analysis at TEMP = -196.150000 and TNOM = 27.000000


No. of Data Rows : 186
 MONTE CARLO RUN: 33
Reset re-loads circuit * nmos sweep (sky130) 

Circuit: * nmos sweep (sky130) 

Doing analysis at TEMP = -196.150000 and TNOM = 27.000000


No. of Data Rows : 186
Doing analysis at TEMP = -196.150000 and TNOM = 27.000000


No. of Data Rows : 186
 MONTE CARLO RUN: 34
Reset re-loads circuit * nmos sweep (sky130) 

Circuit: * nmos sweep (sky130) 

Doing analysis at TEMP = -196.150000 and TNOM = 27.000000

 Reference value :  0.00000e+00Warning: strange file type "csv" (using "ascii")
Warning: strange file type "csv" (using "ascii")
Warning: strange file type "csv" (using "ascii")
Warning: strange file type "csv" (using "ascii")
Warning: strange file type "csv" (using "ascii")
Warning: strange file type "csv" (using "ascii")

No. of Data Rows : 186
Doing analysis at TEMP = -196.150000 and TNOM = 27.000000


No. of Data Rows : 186
 MONTE CARLO RUN: 35
Reset re-loads circuit * nmos sweep (sky130) 

Circuit: * nmos sweep (sky130) 

Doing analysis at TEMP = -196.150000 and TNOM = 27.000000


No. of Data Rows : 186
Doing analysis at TEMP = -196.150000 and TNOM = 27.000000


No. of Data Rows : 186
 MONTE CARLO RUN: 36
Reset re-loads circuit * nmos sweep (sky130) 

Circuit: * nmos sweep (sky130) 

Doing analysis at TEMP = -196.150000 and TNOM = 27.000000


No. of Data Rows : 186
Doing analysis at TEMP = -196.150000 and TNOM = 27.000000


No. of Data Rows : 186
 MONTE CARLO RUN: 37
Reset re-loads circuit * nmos sweep (sky130) 

Circuit: * nmos sweep (sky130) 

Doing analysis at TEMP = -196.150000 and TNOM = 27.000000

 Reference value :  0.00000e+00Warning: strange file type "csv" (using "ascii")
Warning: strange file type "csv" (using "ascii")
Warning: strange file type "csv" (using "ascii")
Warning: strange file type "csv" (using "ascii")
Warning: strange file type "csv" (using "ascii")
Warning: strange file type "csv" (using "ascii")

No. of Data Rows : 186
Doing analysis at TEMP = -196.150000 and TNOM = 27.000000


No. of Data Rows : 186
 MONTE CARLO RUN: 38
Reset re-loads circuit * nmos sweep (sky130) 

Circuit: * nmos sweep (sky130) 

Doing analysis at TEMP = -196.150000 and TNOM = 27.000000


No. of Data Rows : 186
Doing analysis at TEMP = -196.150000 and TNOM = 27.000000


No. of Data Rows : 186
 MONTE CARLO RUN: 39
Reset re-loads circuit * nmos sweep (sky130) 

Circuit: * nmos sweep (sky130) 

Doing analysis at TEMP = -196.150000 and TNOM = 27.000000


No. of Data Rows : 186
Doing analysis at TEMP = -196.150000 and TNOM = 27.000000


No. of Data Rows : 186
 MONTE CARLO RUN: 40
Reset re-loads circuit * nmos sweep (sky130) 

Circuit: * nmos sweep (sky130) 

Doing analysis at TEMP = -196.150000 and TNOM = 27.000000

 Reference value :  0.00000e+00Warning: strange file type "csv" (using "ascii")
Warning: strange file type "csv" (using "ascii")
Warning: strange file type "csv" (using "ascii")
Warning: strange file type "csv" (using "ascii")
Warning: strange file type "csv" (using "ascii")
Warning: strange file type "csv" (using "ascii")

No. of Data Rows : 186
Doing analysis at TEMP = -196.150000 and TNOM = 27.000000


No. of Data Rows : 186
 MONTE CARLO RUN: 41
Reset re-loads circuit * nmos sweep (sky130) 

Circuit: * nmos sweep (sky130) 

Doing analysis at TEMP = -196.150000 and TNOM = 27.000000


No. of Data Rows : 186
Doing analysis at TEMP = -196.150000 and TNOM = 27.000000


No. of Data Rows : 186
 MONTE CARLO RUN: 42
Reset re-loads circuit * nmos sweep (sky130) 

Circuit: * nmos sweep (sky130) 

Doing analysis at TEMP = -196.150000 and TNOM = 27.000000


No. of Data Rows : 186
Doing analysis at TEMP = -196.150000 and TNOM = 27.000000


No. of Data Rows : 186
 MONTE CARLO RUN: 43
Reset re-loads circuit * nmos sweep (sky130) 

Circuit: * nmos sweep (sky130) 

Doing analysis at TEMP = -196.150000 and TNOM = 27.000000

 Reference value :  0.00000e+00Warning: strange file type "csv" (using "ascii")
Warning: strange file type "csv" (using "ascii")
Warning: strange file type "csv" (using "ascii")
Warning: strange file type "csv" (using "ascii")
Warning: strange file type "csv" (using "ascii")
Warning: strange file type "csv" (using "ascii")

No. of Data Rows : 186
Doing analysis at TEMP = -196.150000 and TNOM = 27.000000


No. of Data Rows : 186
 MONTE CARLO RUN: 44
Reset re-loads circuit * nmos sweep (sky130) 

Circuit: * nmos sweep (sky130) 

Doing analysis at TEMP = -196.150000 and TNOM = 27.000000


No. of Data Rows : 186
Doing analysis at TEMP = -196.150000 and TNOM = 27.000000


No. of Data Rows : 186
 MONTE CARLO RUN: 45
Reset re-loads circuit * nmos sweep (sky130) 

Circuit: * nmos sweep (sky130) 

Doing analysis at TEMP = -196.150000 and TNOM = 27.000000


No. of Data Rows : 186
Doing analysis at TEMP = -196.150000 and TNOM = 27.000000


No. of Data Rows : 186
 MONTE CARLO RUN: 46
Reset re-loads circuit * nmos sweep (sky130) 

Circuit: * nmos sweep (sky130) 

Doing analysis at TEMP = -196.150000 and TNOM = 27.000000

 Reference value :  0.00000e+00Warning: strange file type "csv" (using "ascii")
Warning: strange file type "csv" (using "ascii")
Warning: strange file type "csv" (using "ascii")
Warning: strange file type "csv" (using "ascii")
Warning: strange file type "csv" (using "ascii")
Warning: strange file type "csv" (using "ascii")

No. of Data Rows : 186
Doing analysis at TEMP = -196.150000 and TNOM = 27.000000


No. of Data Rows : 186
 MONTE CARLO RUN: 47
Reset re-loads circuit * nmos sweep (sky130) 

Circuit: * nmos sweep (sky130) 

Doing analysis at TEMP = -196.150000 and TNOM = 27.000000


No. of Data Rows : 186
Doing analysis at TEMP = -196.150000 and TNOM = 27.000000


No. of Data Rows : 186
 MONTE CARLO RUN: 48
Reset re-loads circuit * nmos sweep (sky130) 

Circuit: * nmos sweep (sky130) 

Doing analysis at TEMP = -196.150000 and TNOM = 27.000000


No. of Data Rows : 186
Doing analysis at TEMP = -196.150000 and TNOM = 27.000000


No. of Data Rows : 186
 MONTE CARLO RUN: 49
Reset re-loads circuit * nmos sweep (sky130) 

Circuit: * nmos sweep (sky130) 

Doing analysis at TEMP = -196.150000 and TNOM = 27.000000

 Reference value :  0.00000e+00Warning: strange file type "csv" (using "ascii")
Warning: strange file type "csv" (using "ascii")
Warning: strange file type "csv" (using "ascii")
Warning: strange file type "csv" (using "ascii")
Warning: strange file type "csv" (using "ascii")
Warning: strange file type "csv" (using "ascii")

No. of Data Rows : 186
Doing analysis at TEMP = -196.150000 and TNOM = 27.000000


No. of Data Rows : 186
 MONTE CARLO RUN: 50
Reset re-loads circuit * nmos sweep (sky130) 

Circuit: * nmos sweep (sky130) 

Doing analysis at TEMP = -196.150000 and TNOM = 27.000000


No. of Data Rows : 186
Doing analysis at TEMP = -196.150000 and TNOM = 27.000000


No. of Data Rows : 186
 MONTE CARLO RUN: 51
Reset re-loads circuit * nmos sweep (sky130) 

Circuit: * nmos sweep (sky130) 

Doing analysis at TEMP = -196.150000 and TNOM = 27.000000


No. of Data Rows : 186
Doing analysis at TEMP = -196.150000 and TNOM = 27.000000


No. of Data Rows : 186
 MONTE CARLO RUN: 52
Reset re-loads circuit * nmos sweep (sky130) 

Circuit: * nmos sweep (sky130) 

Doing analysis at TEMP = -196.150000 and TNOM = 27.000000

 Reference value :  0.00000e+00Warning: strange file type "csv" (using "ascii")
Warning: strange file type "csv" (using "ascii")
Warning: strange file type "csv" (using "ascii")
Warning: strange file type "csv" (using "ascii")
Warning: strange file type "csv" (using "ascii")
Warning: strange file type "csv" (using "ascii")

No. of Data Rows : 186
Doing analysis at TEMP = -196.150000 and TNOM = 27.000000


No. of Data Rows : 186
 MONTE CARLO RUN: 53
Reset re-loads circuit * nmos sweep (sky130) 

Circuit: * nmos sweep (sky130) 

Doing analysis at TEMP = -196.150000 and TNOM = 27.000000


No. of Data Rows : 186
Doing analysis at TEMP = -196.150000 and TNOM = 27.000000


No. of Data Rows : 186
 MONTE CARLO RUN: 54
Reset re-loads circuit * nmos sweep (sky130) 

Circuit: * nmos sweep (sky130) 

Doing analysis at TEMP = -196.150000 and TNOM = 27.000000


No. of Data Rows : 186
Doing analysis at TEMP = -196.150000 and TNOM = 27.000000


No. of Data Rows : 186
 MONTE CARLO RUN: 55
Reset re-loads circuit * nmos sweep (sky130) 

Circuit: * nmos sweep (sky130) 

Doing analysis at TEMP = -196.150000 and TNOM = 27.000000

 Reference value :  0.00000e+00Warning: strange file type "csv" (using "ascii")
Warning: strange file type "csv" (using "ascii")
Warning: strange file type "csv" (using "ascii")
Warning: strange file type "csv" (using "ascii")
Warning: strange file type "csv" (using "ascii")
Warning: strange file type "csv" (using "ascii")

No. of Data Rows : 186
Doing analysis at TEMP = -196.150000 and TNOM = 27.000000


No. of Data Rows : 186
 MONTE CARLO RUN: 56
Reset re-loads circuit * nmos sweep (sky130) 

Circuit: * nmos sweep (sky130) 

Doing analysis at TEMP = -196.150000 and TNOM = 27.000000


No. of Data Rows : 186
Doing analysis at TEMP = -196.150000 and TNOM = 27.000000


No. of Data Rows : 186
 MONTE CARLO RUN: 57
Reset re-loads circuit * nmos sweep (sky130) 

Circuit: * nmos sweep (sky130) 

Doing analysis at TEMP = -196.150000 and TNOM = 27.000000


No. of Data Rows : 186
Doing analysis at TEMP = -196.150000 and TNOM = 27.000000


No. of Data Rows : 186
 MONTE CARLO RUN: 58
Reset re-loads circuit * nmos sweep (sky130) 

Circuit: * nmos sweep (sky130) 

Doing analysis at TEMP = -196.150000 and TNOM = 27.000000

 Reference value :  0.00000e+00Warning: strange file type "csv" (using "ascii")
Warning: strange file type "csv" (using "ascii")
Warning: strange file type "csv" (using "ascii")
Warning: strange file type "csv" (using "ascii")
Warning: strange file type "csv" (using "ascii")
Warning: strange file type "csv" (using "ascii")

No. of Data Rows : 186
Doing analysis at TEMP = -196.150000 and TNOM = 27.000000


No. of Data Rows : 186
 MONTE CARLO RUN: 59
Reset re-loads circuit * nmos sweep (sky130) 

Circuit: * nmos sweep (sky130) 

Doing analysis at TEMP = -196.150000 and TNOM = 27.000000


No. of Data Rows : 186
Doing analysis at TEMP = -196.150000 and TNOM = 27.000000


No. of Data Rows : 186
 MONTE CARLO RUN: 60
Reset re-loads circuit * nmos sweep (sky130) 

Circuit: * nmos sweep (sky130) 

Doing analysis at TEMP = -196.150000 and TNOM = 27.000000


No. of Data Rows : 186
Doing analysis at TEMP = -196.150000 and TNOM = 27.000000


No. of Data Rows : 186
 MONTE CARLO RUN: 61
Reset re-loads circuit * nmos sweep (sky130) 

Circuit: * nmos sweep (sky130) 

Doing analysis at TEMP = -196.150000 and TNOM = 27.000000

 Reference value :  0.00000e+00Warning: strange file type "csv" (using "ascii")
Warning: strange file type "csv" (using "ascii")
Warning: strange file type "csv" (using "ascii")
Warning: strange file type "csv" (using "ascii")
Warning: strange file type "csv" (using "ascii")
Warning: strange file type "csv" (using "ascii")

No. of Data Rows : 186
Doing analysis at TEMP = -196.150000 and TNOM = 27.000000


No. of Data Rows : 186
 MONTE CARLO RUN: 62
Reset re-loads circuit * nmos sweep (sky130) 

Circuit: * nmos sweep (sky130) 

Doing analysis at TEMP = -196.150000 and TNOM = 27.000000


No. of Data Rows : 186
Doing analysis at TEMP = -196.150000 and TNOM = 27.000000


No. of Data Rows : 186
 MONTE CARLO RUN: 63
Reset re-loads circuit * nmos sweep (sky130) 

Circuit: * nmos sweep (sky130) 

Doing analysis at TEMP = -196.150000 and TNOM = 27.000000


No. of Data Rows : 186
Doing analysis at TEMP = -196.150000 and TNOM = 27.000000


No. of Data Rows : 186
 MONTE CARLO RUN: 64
Reset re-loads circuit * nmos sweep (sky130) 

Circuit: * nmos sweep (sky130) 

Doing analysis at TEMP = -196.150000 and TNOM = 27.000000

 Reference value :  0.00000e+00Warning: strange file type "csv" (using "ascii")
Warning: strange file type "csv" (using "ascii")
Warning: strange file type "csv" (using "ascii")
Warning: strange file type "csv" (using "ascii")
Warning: strange file type "csv" (using "ascii")
Warning: strange file type "csv" (using "ascii")

No. of Data Rows : 186
Doing analysis at TEMP = -196.150000 and TNOM = 27.000000


No. of Data Rows : 186
 MONTE CARLO RUN: 65
Reset re-loads circuit * nmos sweep (sky130) 

Circuit: * nmos sweep (sky130) 

Doing analysis at TEMP = -196.150000 and TNOM = 27.000000


No. of Data Rows : 186
Doing analysis at TEMP = -196.150000 and TNOM = 27.000000


No. of Data Rows : 186
 MONTE CARLO RUN: 66
Reset re-loads circuit * nmos sweep (sky130) 

Circuit: * nmos sweep (sky130) 

Doing analysis at TEMP = -196.150000 and TNOM = 27.000000


No. of Data Rows : 186
Doing analysis at TEMP = -196.150000 and TNOM = 27.000000


No. of Data Rows : 186
 MONTE CARLO RUN: 67
Reset re-loads circuit * nmos sweep (sky130) 

Circuit: * nmos sweep (sky130) 

Doing analysis at TEMP = -196.150000 and TNOM = 27.000000

 Reference value :  0.00000e+00Warning: strange file type "csv" (using "ascii")
Warning: strange file type "csv" (using "ascii")
Warning: strange file type "csv" (using "ascii")
Warning: strange file type "csv" (using "ascii")
Warning: strange file type "csv" (using "ascii")
Warning: strange file type "csv" (using "ascii")

No. of Data Rows : 186
Doing analysis at TEMP = -196.150000 and TNOM = 27.000000


No. of Data Rows : 186
 MONTE CARLO RUN: 68
Reset re-loads circuit * nmos sweep (sky130) 

Circuit: * nmos sweep (sky130) 

Doing analysis at TEMP = -196.150000 and TNOM = 27.000000


No. of Data Rows : 186
Doing analysis at TEMP = -196.150000 and TNOM = 27.000000


No. of Data Rows : 186
 MONTE CARLO RUN: 69
Reset re-loads circuit * nmos sweep (sky130) 

Circuit: * nmos sweep (sky130) 

Doing analysis at TEMP = -196.150000 and TNOM = 27.000000


No. of Data Rows : 186
Doing analysis at TEMP = -196.150000 and TNOM = 27.000000


No. of Data Rows : 186
 MONTE CARLO RUN: 70
Reset re-loads circuit * nmos sweep (sky130) 

Circuit: * nmos sweep (sky130) 

Doing analysis at TEMP = -196.150000 and TNOM = 27.000000

 Reference value :  0.00000e+00Warning: strange file type "csv" (using "ascii")
Warning: strange file type "csv" (using "ascii")
Warning: strange file type "csv" (using "ascii")
Warning: strange file type "csv" (using "ascii")
Warning: strange file type "csv" (using "ascii")
Warning: strange file type "csv" (using "ascii")

No. of Data Rows : 186
Doing analysis at TEMP = -196.150000 and TNOM = 27.000000


No. of Data Rows : 186
 MONTE CARLO RUN: 71
Reset re-loads circuit * nmos sweep (sky130) 

Circuit: * nmos sweep (sky130) 

Doing analysis at TEMP = -196.150000 and TNOM = 27.000000


No. of Data Rows : 186
Doing analysis at TEMP = -196.150000 and TNOM = 27.000000


No. of Data Rows : 186
 MONTE CARLO RUN: 72
Reset re-loads circuit * nmos sweep (sky130) 

Circuit: * nmos sweep (sky130) 

Doing analysis at TEMP = -196.150000 and TNOM = 27.000000


No. of Data Rows : 186
Doing analysis at TEMP = -196.150000 and TNOM = 27.000000


No. of Data Rows : 186
 MONTE CARLO RUN: 73
Reset re-loads circuit * nmos sweep (sky130) 

Circuit: * nmos sweep (sky130) 

Doing analysis at TEMP = -196.150000 and TNOM = 27.000000

 Reference value :  0.00000e+00Warning: strange file type "csv" (using "ascii")
Warning: strange file type "csv" (using "ascii")
Warning: strange file type "csv" (using "ascii")
Warning: strange file type "csv" (using "ascii")
Warning: strange file type "csv" (using "ascii")
Warning: strange file type "csv" (using "ascii")

No. of Data Rows : 186
Doing analysis at TEMP = -196.150000 and TNOM = 27.000000


No. of Data Rows : 186
 MONTE CARLO RUN: 74
Reset re-loads circuit * nmos sweep (sky130) 

Circuit: * nmos sweep (sky130) 

Doing analysis at TEMP = -196.150000 and TNOM = 27.000000


No. of Data Rows : 186
Doing analysis at TEMP = -196.150000 and TNOM = 27.000000


No. of Data Rows : 186
 MONTE CARLO RUN: 75
Reset re-loads circuit * nmos sweep (sky130) 

Circuit: * nmos sweep (sky130) 

Doing analysis at TEMP = -196.150000 and TNOM = 27.000000


No. of Data Rows : 186
Doing analysis at TEMP = -196.150000 and TNOM = 27.000000


No. of Data Rows : 186
 MONTE CARLO RUN: 76
Reset re-loads circuit * nmos sweep (sky130) 

Circuit: * nmos sweep (sky130) 

Doing analysis at TEMP = -196.150000 and TNOM = 27.000000

 Reference value :  0.00000e+00Warning: strange file type "csv" (using "ascii")
Warning: strange file type "csv" (using "ascii")
Warning: strange file type "csv" (using "ascii")
Warning: strange file type "csv" (using "ascii")
Warning: strange file type "csv" (using "ascii")
Warning: strange file type "csv" (using "ascii")

No. of Data Rows : 186
Doing analysis at TEMP = -196.150000 and TNOM = 27.000000


No. of Data Rows : 186
 MONTE CARLO RUN: 77
Reset re-loads circuit * nmos sweep (sky130) 

Circuit: * nmos sweep (sky130) 

Doing analysis at TEMP = -196.150000 and TNOM = 27.000000


No. of Data Rows : 186
Doing analysis at TEMP = -196.150000 and TNOM = 27.000000


No. of Data Rows : 186
 MONTE CARLO RUN: 78
Reset re-loads circuit * nmos sweep (sky130) 

Circuit: * nmos sweep (sky130) 

Doing analysis at TEMP = -196.150000 and TNOM = 27.000000


No. of Data Rows : 186
Doing analysis at TEMP = -196.150000 and TNOM = 27.000000


No. of Data Rows : 186
 MONTE CARLO RUN: 79
Reset re-loads circuit * nmos sweep (sky130) 

Circuit: * nmos sweep (sky130) 

Doing analysis at TEMP = -196.150000 and TNOM = 27.000000

 Reference value :  0.00000e+00Warning: strange file type "csv" (using "ascii")
Warning: strange file type "csv" (using "ascii")
Warning: strange file type "csv" (using "ascii")
Warning: strange file type "csv" (using "ascii")
Warning: strange file type "csv" (using "ascii")
Warning: strange file type "csv" (using "ascii")

No. of Data Rows : 186
Doing analysis at TEMP = -196.150000 and TNOM = 27.000000


No. of Data Rows : 186
 MONTE CARLO RUN: 80
Reset re-loads circuit * nmos sweep (sky130) 

Circuit: * nmos sweep (sky130) 

Doing analysis at TEMP = -196.150000 and TNOM = 27.000000


No. of Data Rows : 186
Doing analysis at TEMP = -196.150000 and TNOM = 27.000000


No. of Data Rows : 186
 MONTE CARLO RUN: 81
Reset re-loads circuit * nmos sweep (sky130) 

Circuit: * nmos sweep (sky130) 

Doing analysis at TEMP = -196.150000 and TNOM = 27.000000


No. of Data Rows : 186
Doing analysis at TEMP = -196.150000 and TNOM = 27.000000


No. of Data Rows : 186
 MONTE CARLO RUN: 82
Reset re-loads circuit * nmos sweep (sky130) 

Circuit: * nmos sweep (sky130) 

Doing analysis at TEMP = -196.150000 and TNOM = 27.000000

 Reference value :  0.00000e+00Warning: strange file type "csv" (using "ascii")
Warning: strange file type "csv" (using "ascii")
Warning: strange file type "csv" (using "ascii")
Warning: strange file type "csv" (using "ascii")
Warning: strange file type "csv" (using "ascii")
Warning: strange file type "csv" (using "ascii")

No. of Data Rows : 186
Doing analysis at TEMP = -196.150000 and TNOM = 27.000000


No. of Data Rows : 186
 MONTE CARLO RUN: 83
Reset re-loads circuit * nmos sweep (sky130) 

Circuit: * nmos sweep (sky130) 

Doing analysis at TEMP = -196.150000 and TNOM = 27.000000


No. of Data Rows : 186
Doing analysis at TEMP = -196.150000 and TNOM = 27.000000


No. of Data Rows : 186
 MONTE CARLO RUN: 84
Reset re-loads circuit * nmos sweep (sky130) 

Circuit: * nmos sweep (sky130) 

Doing analysis at TEMP = -196.150000 and TNOM = 27.000000


No. of Data Rows : 186
Doing analysis at TEMP = -196.150000 and TNOM = 27.000000


No. of Data Rows : 186
 MONTE CARLO RUN: 85
Reset re-loads circuit * nmos sweep (sky130) 

Circuit: * nmos sweep (sky130) 

Doing analysis at TEMP = -196.150000 and TNOM = 27.000000

 Reference value :  0.00000e+00Warning: strange file type "csv" (using "ascii")
Warning: strange file type "csv" (using "ascii")
Warning: strange file type "csv" (using "ascii")
Warning: strange file type "csv" (using "ascii")
Warning: strange file type "csv" (using "ascii")
Warning: strange file type "csv" (using "ascii")

No. of Data Rows : 186
Doing analysis at TEMP = -196.150000 and TNOM = 27.000000


No. of Data Rows : 186
 MONTE CARLO RUN: 86
Reset re-loads circuit * nmos sweep (sky130) 

Circuit: * nmos sweep (sky130) 

Doing analysis at TEMP = -196.150000 and TNOM = 27.000000


No. of Data Rows : 186
Doing analysis at TEMP = -196.150000 and TNOM = 27.000000


No. of Data Rows : 186
 MONTE CARLO RUN: 87
Reset re-loads circuit * nmos sweep (sky130) 

Circuit: * nmos sweep (sky130) 

Doing analysis at TEMP = -196.150000 and TNOM = 27.000000


No. of Data Rows : 186
Doing analysis at TEMP = -196.150000 and TNOM = 27.000000


No. of Data Rows : 186
 MONTE CARLO RUN: 88
Reset re-loads circuit * nmos sweep (sky130) 

Circuit: * nmos sweep (sky130) 

Doing analysis at TEMP = -196.150000 and TNOM = 27.000000

 Reference value :  0.00000e+00Warning: strange file type "csv" (using "ascii")
Warning: strange file type "csv" (using "ascii")
Warning: strange file type "csv" (using "ascii")
Warning: strange file type "csv" (using "ascii")
Warning: strange file type "csv" (using "ascii")
Warning: strange file type "csv" (using "ascii")

No. of Data Rows : 186
Doing analysis at TEMP = -196.150000 and TNOM = 27.000000


No. of Data Rows : 186
 MONTE CARLO RUN: 89
Reset re-loads circuit * nmos sweep (sky130) 

Circuit: * nmos sweep (sky130) 

Doing analysis at TEMP = -196.150000 and TNOM = 27.000000


No. of Data Rows : 186
Doing analysis at TEMP = -196.150000 and TNOM = 27.000000


No. of Data Rows : 186
 MONTE CARLO RUN: 90
Reset re-loads circuit * nmos sweep (sky130) 

Circuit: * nmos sweep (sky130) 

Doing analysis at TEMP = -196.150000 and TNOM = 27.000000


No. of Data Rows : 186
Doing analysis at TEMP = -196.150000 and TNOM = 27.000000


No. of Data Rows : 186
 MONTE CARLO RUN: 91
Reset re-loads circuit * nmos sweep (sky130) 

Circuit: * nmos sweep (sky130) 

Doing analysis at TEMP = -196.150000 and TNOM = 27.000000

 Reference value :  0.00000e+00Warning: strange file type "csv" (using "ascii")
Warning: strange file type "csv" (using "ascii")
Warning: strange file type "csv" (using "ascii")
Warning: strange file type "csv" (using "ascii")
Warning: strange file type "csv" (using "ascii")
Warning: strange file type "csv" (using "ascii")

No. of Data Rows : 186
Doing analysis at TEMP = -196.150000 and TNOM = 27.000000


No. of Data Rows : 186
 MONTE CARLO RUN: 92
Reset re-loads circuit * nmos sweep (sky130) 

Circuit: * nmos sweep (sky130) 

Doing analysis at TEMP = -196.150000 and TNOM = 27.000000


No. of Data Rows : 186
Doing analysis at TEMP = -196.150000 and TNOM = 27.000000


No. of Data Rows : 186
 MONTE CARLO RUN: 93
Reset re-loads circuit * nmos sweep (sky130) 

Circuit: * nmos sweep (sky130) 

Doing analysis at TEMP = -196.150000 and TNOM = 27.000000


No. of Data Rows : 186
Doing analysis at TEMP = -196.150000 and TNOM = 27.000000


No. of Data Rows : 186
 MONTE CARLO RUN: 94
Reset re-loads circuit * nmos sweep (sky130) 

Circuit: * nmos sweep (sky130) 

Doing analysis at TEMP = -196.150000 and TNOM = 27.000000

 Reference value :  0.00000e+00Warning: strange file type "csv" (using "ascii")
Warning: strange file type "csv" (using "ascii")
Warning: strange file type "csv" (using "ascii")
Warning: strange file type "csv" (using "ascii")
Warning: strange file type "csv" (using "ascii")
Warning: strange file type "csv" (using "ascii")

No. of Data Rows : 186
Doing analysis at TEMP = -196.150000 and TNOM = 27.000000


No. of Data Rows : 186
 MONTE CARLO RUN: 95
Reset re-loads circuit * nmos sweep (sky130) 

Circuit: * nmos sweep (sky130) 

Doing analysis at TEMP = -196.150000 and TNOM = 27.000000


No. of Data Rows : 186
Doing analysis at TEMP = -196.150000 and TNOM = 27.000000


No. of Data Rows : 186
 MONTE CARLO RUN: 96
Reset re-loads circuit * nmos sweep (sky130) 

Circuit: * nmos sweep (sky130) 

Doing analysis at TEMP = -196.150000 and TNOM = 27.000000


No. of Data Rows : 186
Doing analysis at TEMP = -196.150000 and TNOM = 27.000000


No. of Data Rows : 186
 MONTE CARLO RUN: 97
Reset re-loads circuit * nmos sweep (sky130) 

Circuit: * nmos sweep (sky130) 

Doing analysis at TEMP = -196.150000 and TNOM = 27.000000

 Reference value :  0.00000e+00Warning: strange file type "csv" (using "ascii")
Warning: strange file type "csv" (using "ascii")
Warning: strange file type "csv" (using "ascii")
Warning: strange file type "csv" (using "ascii")
Warning: strange file type "csv" (using "ascii")
Warning: strange file type "csv" (using "ascii")

No. of Data Rows : 186
Doing analysis at TEMP = -196.150000 and TNOM = 27.000000


No. of Data Rows : 186
 MONTE CARLO RUN: 98
Reset re-loads circuit * nmos sweep (sky130) 

Circuit: * nmos sweep (sky130) 

Doing analysis at TEMP = -196.150000 and TNOM = 27.000000


No. of Data Rows : 186
Doing analysis at TEMP = -196.150000 and TNOM = 27.000000


No. of Data Rows : 186
 MONTE CARLO RUN: 99
Reset re-loads circuit * nmos sweep (sky130) 

Circuit: * nmos sweep (sky130) 

Doing analysis at TEMP = -196.150000 and TNOM = 27.000000


No. of Data Rows : 186
Doing analysis at TEMP = -196.150000 and TNOM = 27.000000


No. of Data Rows : 186
 MONTE CARLO RUN: 100
Reset re-loads circuit * nmos sweep (sky130) 

Circuit: * nmos sweep (sky130) 

Doing analysis at TEMP = -196.150000 and TNOM = 27.000000

 Reference value :  0.00000e+00Warning: strange file type "csv" (using "ascii")
Warning: strange file type "csv" (using "ascii")
Warning: strange file type "csv" (using "ascii")
Warning: strange file type "csv" (using "ascii")
Warning: strange file type "csv" (using "ascii")
Warning: strange file type "csv" (using "ascii")

No. of Data Rows : 186
Doing analysis at TEMP = -196.150000 and TNOM = 27.000000


No. of Data Rows : 186
 MONTE CARLO RUN: 101
Reset re-loads circuit * nmos sweep (sky130) 

Circuit: * nmos sweep (sky130) 

Doing analysis at TEMP = -196.150000 and TNOM = 27.000000


No. of Data Rows : 186
Doing analysis at TEMP = -196.150000 and TNOM = 27.000000


No. of Data Rows : 186
 MONTE CARLO RUN: 102
Reset re-loads circuit * nmos sweep (sky130) 

Circuit: * nmos sweep (sky130) 

Doing analysis at TEMP = -196.150000 and TNOM = 27.000000


No. of Data Rows : 186
Doing analysis at TEMP = -196.150000 and TNOM = 27.000000


No. of Data Rows : 186
 MONTE CARLO RUN: 103
Reset re-loads circuit * nmos sweep (sky130) 

Circuit: * nmos sweep (sky130) 

Doing analysis at TEMP = -196.150000 and TNOM = 27.000000

 Reference value :  0.00000e+00Warning: strange file type "csv" (using "ascii")
Warning: strange file type "csv" (using "ascii")
Warning: strange file type "csv" (using "ascii")
Warning: strange file type "csv" (using "ascii")
Warning: strange file type "csv" (using "ascii")
Warning: strange file type "csv" (using "ascii")

No. of Data Rows : 186
Doing analysis at TEMP = -196.150000 and TNOM = 27.000000


No. of Data Rows : 186
 MONTE CARLO RUN: 104
Reset re-loads circuit * nmos sweep (sky130) 

Circuit: * nmos sweep (sky130) 

Doing analysis at TEMP = -196.150000 and TNOM = 27.000000


No. of Data Rows : 186
Doing analysis at TEMP = -196.150000 and TNOM = 27.000000


No. of Data Rows : 186
 MONTE CARLO RUN: 105
Reset re-loads circuit * nmos sweep (sky130) 

Circuit: * nmos sweep (sky130) 

Doing analysis at TEMP = -196.150000 and TNOM = 27.000000


No. of Data Rows : 186
Doing analysis at TEMP = -196.150000 and TNOM = 27.000000


No. of Data Rows : 186
 MONTE CARLO RUN: 106
Reset re-loads circuit * nmos sweep (sky130) 

Circuit: * nmos sweep (sky130) 

Doing analysis at TEMP = -196.150000 and TNOM = 27.000000

 Reference value :  0.00000e+00Warning: strange file type "csv" (using "ascii")
Warning: strange file type "csv" (using "ascii")
Warning: strange file type "csv" (using "ascii")
Warning: strange file type "csv" (using "ascii")
Warning: strange file type "csv" (using "ascii")
Warning: strange file type "csv" (using "ascii")

No. of Data Rows : 186
Doing analysis at TEMP = -196.150000 and TNOM = 27.000000


No. of Data Rows : 186
 MONTE CARLO RUN: 107
Reset re-loads circuit * nmos sweep (sky130) 

Circuit: * nmos sweep (sky130) 

Doing analysis at TEMP = -196.150000 and TNOM = 27.000000


No. of Data Rows : 186
Doing analysis at TEMP = -196.150000 and TNOM = 27.000000


No. of Data Rows : 186
 MONTE CARLO RUN: 108
Reset re-loads circuit * nmos sweep (sky130) 

Circuit: * nmos sweep (sky130) 

Doing analysis at TEMP = -196.150000 and TNOM = 27.000000


No. of Data Rows : 186
Doing analysis at TEMP = -196.150000 and TNOM = 27.000000


No. of Data Rows : 186
 MONTE CARLO RUN: 109
Reset re-loads circuit * nmos sweep (sky130) 

Circuit: * nmos sweep (sky130) 

Doing analysis at TEMP = -196.150000 and TNOM = 27.000000

 Reference value :  0.00000e+00Warning: strange file type "csv" (using "ascii")
Warning: strange file type "csv" (using "ascii")
Warning: strange file type "csv" (using "ascii")
Warning: strange file type "csv" (using "ascii")
Warning: strange file type "csv" (using "ascii")
Warning: strange file type "csv" (using "ascii")

No. of Data Rows : 186
Doing analysis at TEMP = -196.150000 and TNOM = 27.000000


No. of Data Rows : 186
 MONTE CARLO RUN: 110
Reset re-loads circuit * nmos sweep (sky130) 

Circuit: * nmos sweep (sky130) 

Doing analysis at TEMP = -196.150000 and TNOM = 27.000000


No. of Data Rows : 186
Doing analysis at TEMP = -196.150000 and TNOM = 27.000000


No. of Data Rows : 186
 MONTE CARLO RUN: 111
Reset re-loads circuit * nmos sweep (sky130) 

Circuit: * nmos sweep (sky130) 

Doing analysis at TEMP = -196.150000 and TNOM = 27.000000


No. of Data Rows : 186
Doing analysis at TEMP = -196.150000 and TNOM = 27.000000


No. of Data Rows : 186
 MONTE CARLO RUN: 112
Reset re-loads circuit * nmos sweep (sky130) 

Circuit: * nmos sweep (sky130) 

Doing analysis at TEMP = -196.150000 and TNOM = 27.000000

 Reference value :  0.00000e+00Warning: strange file type "csv" (using "ascii")
Warning: strange file type "csv" (using "ascii")
Warning: strange file type "csv" (using "ascii")
Warning: strange file type "csv" (using "ascii")
Warning: strange file type "csv" (using "ascii")
Warning: strange file type "csv" (using "ascii")

No. of Data Rows : 186
Doing analysis at TEMP = -196.150000 and TNOM = 27.000000


No. of Data Rows : 186
 MONTE CARLO RUN: 113
Reset re-loads circuit * nmos sweep (sky130) 

Circuit: * nmos sweep (sky130) 

Doing analysis at TEMP = -196.150000 and TNOM = 27.000000


No. of Data Rows : 186
Doing analysis at TEMP = -196.150000 and TNOM = 27.000000


No. of Data Rows : 186
 MONTE CARLO RUN: 114
Reset re-loads circuit * nmos sweep (sky130) 

Circuit: * nmos sweep (sky130) 

Doing analysis at TEMP = -196.150000 and TNOM = 27.000000


No. of Data Rows : 186
Doing analysis at TEMP = -196.150000 and TNOM = 27.000000


No. of Data Rows : 186
 MONTE CARLO RUN: 115
Reset re-loads circuit * nmos sweep (sky130) 

Circuit: * nmos sweep (sky130) 

Doing analysis at TEMP = -196.150000 and TNOM = 27.000000

 Reference value :  0.00000e+00Warning: strange file type "csv" (using "ascii")
Warning: strange file type "csv" (using "ascii")
Warning: strange file type "csv" (using "ascii")
Warning: strange file type "csv" (using "ascii")
Warning: strange file type "csv" (using "ascii")
Warning: strange file type "csv" (using "ascii")

No. of Data Rows : 186
Doing analysis at TEMP = -196.150000 and TNOM = 27.000000


No. of Data Rows : 186
 MONTE CARLO RUN: 116
Reset re-loads circuit * nmos sweep (sky130) 

Circuit: * nmos sweep (sky130) 

Doing analysis at TEMP = -196.150000 and TNOM = 27.000000


No. of Data Rows : 186
Doing analysis at TEMP = -196.150000 and TNOM = 27.000000


No. of Data Rows : 186
 MONTE CARLO RUN: 117
Reset re-loads circuit * nmos sweep (sky130) 

Circuit: * nmos sweep (sky130) 

Doing analysis at TEMP = -196.150000 and TNOM = 27.000000


No. of Data Rows : 186
Doing analysis at TEMP = -196.150000 and TNOM = 27.000000


No. of Data Rows : 186
 MONTE CARLO RUN: 118
Reset re-loads circuit * nmos sweep (sky130) 

Circuit: * nmos sweep (sky130) 

Doing analysis at TEMP = -196.150000 and TNOM = 27.000000

 Reference value :  0.00000e+00Warning: strange file type "csv" (using "ascii")
Warning: strange file type "csv" (using "ascii")
Warning: strange file type "csv" (using "ascii")
Warning: strange file type "csv" (using "ascii")
Warning: strange file type "csv" (using "ascii")
Warning: strange file type "csv" (using "ascii")

No. of Data Rows : 186
Doing analysis at TEMP = -196.150000 and TNOM = 27.000000


No. of Data Rows : 186
 MONTE CARLO RUN: 119
Reset re-loads circuit * nmos sweep (sky130) 

Circuit: * nmos sweep (sky130) 

Doing analysis at TEMP = -196.150000 and TNOM = 27.000000


No. of Data Rows : 186
Doing analysis at TEMP = -196.150000 and TNOM = 27.000000


No. of Data Rows : 186
 MONTE CARLO RUN: 120
Reset re-loads circuit * nmos sweep (sky130) 

Circuit: * nmos sweep (sky130) 

Doing analysis at TEMP = -196.150000 and TNOM = 27.000000


No. of Data Rows : 186
Doing analysis at TEMP = -196.150000 and TNOM = 27.000000


No. of Data Rows : 186
 MONTE CARLO RUN: 121
Reset re-loads circuit * nmos sweep (sky130) 

Circuit: * nmos sweep (sky130) 

Doing analysis at TEMP = -196.150000 and TNOM = 27.000000

 Reference value :  0.00000e+00Warning: strange file type "csv" (using "ascii")
Warning: strange file type "csv" (using "ascii")
Warning: strange file type "csv" (using "ascii")
Warning: strange file type "csv" (using "ascii")
Warning: strange file type "csv" (using "ascii")
Warning: strange file type "csv" (using "ascii")

No. of Data Rows : 186
Doing analysis at TEMP = -196.150000 and TNOM = 27.000000


No. of Data Rows : 186
 MONTE CARLO RUN: 122
Reset re-loads circuit * nmos sweep (sky130) 

Circuit: * nmos sweep (sky130) 

Doing analysis at TEMP = -196.150000 and TNOM = 27.000000


No. of Data Rows : 186
Doing analysis at TEMP = -196.150000 and TNOM = 27.000000


No. of Data Rows : 186
 MONTE CARLO RUN: 123
Reset re-loads circuit * nmos sweep (sky130) 

Circuit: * nmos sweep (sky130) 

Doing analysis at TEMP = -196.150000 and TNOM = 27.000000


No. of Data Rows : 186
Doing analysis at TEMP = -196.150000 and TNOM = 27.000000


No. of Data Rows : 186
 MONTE CARLO RUN: 124
Reset re-loads circuit * nmos sweep (sky130) 

Circuit: * nmos sweep (sky130) 

Doing analysis at TEMP = -196.150000 and TNOM = 27.000000

 Reference value :  0.00000e+00Warning: strange file type "csv" (using "ascii")
Warning: strange file type "csv" (using "ascii")
Warning: strange file type "csv" (using "ascii")
Warning: strange file type "csv" (using "ascii")
Warning: strange file type "csv" (using "ascii")
Warning: strange file type "csv" (using "ascii")

No. of Data Rows : 186
Doing analysis at TEMP = -196.150000 and TNOM = 27.000000


No. of Data Rows : 186
 MONTE CARLO RUN: 125
Reset re-loads circuit * nmos sweep (sky130) 

Circuit: * nmos sweep (sky130) 

Doing analysis at TEMP = -196.150000 and TNOM = 27.000000


No. of Data Rows : 186
Doing analysis at TEMP = -196.150000 and TNOM = 27.000000


No. of Data Rows : 186
 MONTE CARLO RUN: 126
Reset re-loads circuit * nmos sweep (sky130) 

Circuit: * nmos sweep (sky130) 

Doing analysis at TEMP = -196.150000 and TNOM = 27.000000


No. of Data Rows : 186
Doing analysis at TEMP = -196.150000 and TNOM = 27.000000


No. of Data Rows : 186
 MONTE CARLO RUN: 127
Reset re-loads circuit * nmos sweep (sky130) 

Circuit: * nmos sweep (sky130) 

Doing analysis at TEMP = -196.150000 and TNOM = 27.000000

 Reference value :  0.00000e+00Warning: strange file type "csv" (using "ascii")
Warning: strange file type "csv" (using "ascii")
Warning: strange file type "csv" (using "ascii")
Warning: strange file type "csv" (using "ascii")
Warning: strange file type "csv" (using "ascii")
Warning: strange file type "csv" (using "ascii")

No. of Data Rows : 186
Doing analysis at TEMP = -196.150000 and TNOM = 27.000000


No. of Data Rows : 186
 MONTE CARLO RUN: 128
Reset re-loads circuit * nmos sweep (sky130) 

Circuit: * nmos sweep (sky130) 

Doing analysis at TEMP = -196.150000 and TNOM = 27.000000


No. of Data Rows : 186
Doing analysis at TEMP = -196.150000 and TNOM = 27.000000


No. of Data Rows : 186
 MONTE CARLO RUN: 129
Reset re-loads circuit * nmos sweep (sky130) 

Circuit: * nmos sweep (sky130) 

Doing analysis at TEMP = -196.150000 and TNOM = 27.000000


No. of Data Rows : 186
Doing analysis at TEMP = -196.150000 and TNOM = 27.000000


No. of Data Rows : 186
 MONTE CARLO RUN: 130
Reset re-loads circuit * nmos sweep (sky130) 

Circuit: * nmos sweep (sky130) 

Doing analysis at TEMP = -196.150000 and TNOM = 27.000000

 Reference value :  0.00000e+00Warning: strange file type "csv" (using "ascii")
Warning: strange file type "csv" (using "ascii")
Warning: strange file type "csv" (using "ascii")
Warning: strange file type "csv" (using "ascii")
Warning: strange file type "csv" (using "ascii")
Warning: strange file type "csv" (using "ascii")

No. of Data Rows : 186
Doing analysis at TEMP = -196.150000 and TNOM = 27.000000


No. of Data Rows : 186
 MONTE CARLO RUN: 131
Reset re-loads circuit * nmos sweep (sky130) 

Circuit: * nmos sweep (sky130) 

Doing analysis at TEMP = -196.150000 and TNOM = 27.000000


No. of Data Rows : 186
Doing analysis at TEMP = -196.150000 and TNOM = 27.000000


No. of Data Rows : 186
 MONTE CARLO RUN: 132
Reset re-loads circuit * nmos sweep (sky130) 

Circuit: * nmos sweep (sky130) 

Doing analysis at TEMP = -196.150000 and TNOM = 27.000000


No. of Data Rows : 186
Doing analysis at TEMP = -196.150000 and TNOM = 27.000000


No. of Data Rows : 186
 MONTE CARLO RUN: 133
Reset re-loads circuit * nmos sweep (sky130) 

Circuit: * nmos sweep (sky130) 

Doing analysis at TEMP = -196.150000 and TNOM = 27.000000

 Reference value :  0.00000e+00Warning: strange file type "csv" (using "ascii")
Warning: strange file type "csv" (using "ascii")
Warning: strange file type "csv" (using "ascii")
Warning: strange file type "csv" (using "ascii")
Warning: strange file type "csv" (using "ascii")
Warning: strange file type "csv" (using "ascii")

No. of Data Rows : 186
Doing analysis at TEMP = -196.150000 and TNOM = 27.000000


No. of Data Rows : 186
 MONTE CARLO RUN: 134
Reset re-loads circuit * nmos sweep (sky130) 

Circuit: * nmos sweep (sky130) 

Doing analysis at TEMP = -196.150000 and TNOM = 27.000000


No. of Data Rows : 186
Doing analysis at TEMP = -196.150000 and TNOM = 27.000000


No. of Data Rows : 186
 MONTE CARLO RUN: 135
Reset re-loads circuit * nmos sweep (sky130) 

Circuit: * nmos sweep (sky130) 

Doing analysis at TEMP = -196.150000 and TNOM = 27.000000


No. of Data Rows : 186
Doing analysis at TEMP = -196.150000 and TNOM = 27.000000


No. of Data Rows : 186
 MONTE CARLO RUN: 136
Reset re-loads circuit * nmos sweep (sky130) 

Circuit: * nmos sweep (sky130) 

Doing analysis at TEMP = -196.150000 and TNOM = 27.000000

 Reference value :  0.00000e+00Warning: strange file type "csv" (using "ascii")
Warning: strange file type "csv" (using "ascii")
Warning: strange file type "csv" (using "ascii")
Warning: strange file type "csv" (using "ascii")
Warning: strange file type "csv" (using "ascii")
Warning: strange file type "csv" (using "ascii")

No. of Data Rows : 186
Doing analysis at TEMP = -196.150000 and TNOM = 27.000000


No. of Data Rows : 186
 MONTE CARLO RUN: 137
Reset re-loads circuit * nmos sweep (sky130) 

Circuit: * nmos sweep (sky130) 

Doing analysis at TEMP = -196.150000 and TNOM = 27.000000


No. of Data Rows : 186
Doing analysis at TEMP = -196.150000 and TNOM = 27.000000


No. of Data Rows : 186
 MONTE CARLO RUN: 138
Reset re-loads circuit * nmos sweep (sky130) 

Circuit: * nmos sweep (sky130) 

Doing analysis at TEMP = -196.150000 and TNOM = 27.000000


No. of Data Rows : 186
Doing analysis at TEMP = -196.150000 and TNOM = 27.000000


No. of Data Rows : 186
 MONTE CARLO RUN: 139
Reset re-loads circuit * nmos sweep (sky130) 

Circuit: * nmos sweep (sky130) 

Doing analysis at TEMP = -196.150000 and TNOM = 27.000000

 Reference value :  0.00000e+00Warning: strange file type "csv" (using "ascii")
Warning: strange file type "csv" (using "ascii")
Warning: strange file type "csv" (using "ascii")
Warning: strange file type "csv" (using "ascii")
Warning: strange file type "csv" (using "ascii")
Warning: strange file type "csv" (using "ascii")

No. of Data Rows : 186
Doing analysis at TEMP = -196.150000 and TNOM = 27.000000


No. of Data Rows : 186
 MONTE CARLO RUN: 140
Reset re-loads circuit * nmos sweep (sky130) 

Circuit: * nmos sweep (sky130) 

Doing analysis at TEMP = -196.150000 and TNOM = 27.000000


No. of Data Rows : 186
Doing analysis at TEMP = -196.150000 and TNOM = 27.000000


No. of Data Rows : 186
 MONTE CARLO RUN: 141
Reset re-loads circuit * nmos sweep (sky130) 

Circuit: * nmos sweep (sky130) 

Doing analysis at TEMP = -196.150000 and TNOM = 27.000000


No. of Data Rows : 186
Doing analysis at TEMP = -196.150000 and TNOM = 27.000000


No. of Data Rows : 186
 MONTE CARLO RUN: 142
Reset re-loads circuit * nmos sweep (sky130) 

Circuit: * nmos sweep (sky130) 

Doing analysis at TEMP = -196.150000 and TNOM = 27.000000

 Reference value :  0.00000e+00Warning: strange file type "csv" (using "ascii")
Warning: strange file type "csv" (using "ascii")
Warning: strange file type "csv" (using "ascii")
Warning: strange file type "csv" (using "ascii")
Warning: strange file type "csv" (using "ascii")
Warning: strange file type "csv" (using "ascii")

No. of Data Rows : 186
Doing analysis at TEMP = -196.150000 and TNOM = 27.000000


No. of Data Rows : 186
 MONTE CARLO RUN: 143
Reset re-loads circuit * nmos sweep (sky130) 

Circuit: * nmos sweep (sky130) 

Doing analysis at TEMP = -196.150000 and TNOM = 27.000000


No. of Data Rows : 186
Doing analysis at TEMP = -196.150000 and TNOM = 27.000000


No. of Data Rows : 186
 MONTE CARLO RUN: 144
Reset re-loads circuit * nmos sweep (sky130) 

Circuit: * nmos sweep (sky130) 

Doing analysis at TEMP = -196.150000 and TNOM = 27.000000


No. of Data Rows : 186
Doing analysis at TEMP = -196.150000 and TNOM = 27.000000


No. of Data Rows : 186
 MONTE CARLO RUN: 145
Reset re-loads circuit * nmos sweep (sky130) 

Circuit: * nmos sweep (sky130) 

Doing analysis at TEMP = -196.150000 and TNOM = 27.000000

 Reference value :  0.00000e+00Warning: strange file type "csv" (using "ascii")
Warning: strange file type "csv" (using "ascii")
Warning: strange file type "csv" (using "ascii")
Warning: strange file type "csv" (using "ascii")
Warning: strange file type "csv" (using "ascii")
Warning: strange file type "csv" (using "ascii")

No. of Data Rows : 186
Doing analysis at TEMP = -196.150000 and TNOM = 27.000000


No. of Data Rows : 186
 MONTE CARLO RUN: 146
Reset re-loads circuit * nmos sweep (sky130) 

Circuit: * nmos sweep (sky130) 

Doing analysis at TEMP = -196.150000 and TNOM = 27.000000


No. of Data Rows : 186
Doing analysis at TEMP = -196.150000 and TNOM = 27.000000


No. of Data Rows : 186
 MONTE CARLO RUN: 147
Reset re-loads circuit * nmos sweep (sky130) 

Circuit: * nmos sweep (sky130) 

Doing analysis at TEMP = -196.150000 and TNOM = 27.000000


No. of Data Rows : 186
Doing analysis at TEMP = -196.150000 and TNOM = 27.000000


No. of Data Rows : 186
 MONTE CARLO RUN: 148
Reset re-loads circuit * nmos sweep (sky130) 

Circuit: * nmos sweep (sky130) 

Doing analysis at TEMP = -196.150000 and TNOM = 27.000000

 Reference value :  0.00000e+00Warning: strange file type "csv" (using "ascii")
Warning: strange file type "csv" (using "ascii")
Warning: strange file type "csv" (using "ascii")
Warning: strange file type "csv" (using "ascii")
Warning: strange file type "csv" (using "ascii")
Warning: strange file type "csv" (using "ascii")

No. of Data Rows : 186
Doing analysis at TEMP = -196.150000 and TNOM = 27.000000


No. of Data Rows : 186
 MONTE CARLO RUN: 149
Reset re-loads circuit * nmos sweep (sky130) 

Circuit: * nmos sweep (sky130) 

Doing analysis at TEMP = -196.150000 and TNOM = 27.000000


No. of Data Rows : 186
Doing analysis at TEMP = -196.150000 and TNOM = 27.000000


No. of Data Rows : 186
 MONTE CARLO RUN: 150
Reset re-loads circuit * nmos sweep (sky130) 

Circuit: * nmos sweep (sky130) 

Doing analysis at TEMP = -196.150000 and TNOM = 27.000000


No. of Data Rows : 186
Doing analysis at TEMP = -196.150000 and TNOM = 27.000000


No. of Data Rows : 186
 MONTE CARLO RUN: 151
Reset re-loads circuit * nmos sweep (sky130) 

Circuit: * nmos sweep (sky130) 

Doing analysis at TEMP = -196.150000 and TNOM = 27.000000

 Reference value :  0.00000e+00Warning: strange file type "csv" (using "ascii")
Warning: strange file type "csv" (using "ascii")
Warning: strange file type "csv" (using "ascii")
Warning: strange file type "csv" (using "ascii")
Warning: strange file type "csv" (using "ascii")
Warning: strange file type "csv" (using "ascii")

No. of Data Rows : 186
Doing analysis at TEMP = -196.150000 and TNOM = 27.000000


No. of Data Rows : 186
 MONTE CARLO RUN: 152
Reset re-loads circuit * nmos sweep (sky130) 

Circuit: * nmos sweep (sky130) 

Doing analysis at TEMP = -196.150000 and TNOM = 27.000000


No. of Data Rows : 186
Doing analysis at TEMP = -196.150000 and TNOM = 27.000000


No. of Data Rows : 186
 MONTE CARLO RUN: 153
Reset re-loads circuit * nmos sweep (sky130) 

Circuit: * nmos sweep (sky130) 

Doing analysis at TEMP = -196.150000 and TNOM = 27.000000


No. of Data Rows : 186
Doing analysis at TEMP = -196.150000 and TNOM = 27.000000


No. of Data Rows : 186
 MONTE CARLO RUN: 154
Reset re-loads circuit * nmos sweep (sky130) 

Circuit: * nmos sweep (sky130) 

Doing analysis at TEMP = -196.150000 and TNOM = 27.000000

 Reference value :  0.00000e+00Warning: strange file type "csv" (using "ascii")
Warning: strange file type "csv" (using "ascii")
Warning: strange file type "csv" (using "ascii")
Warning: strange file type "csv" (using "ascii")
Warning: strange file type "csv" (using "ascii")
Warning: strange file type "csv" (using "ascii")

No. of Data Rows : 186
Doing analysis at TEMP = -196.150000 and TNOM = 27.000000


No. of Data Rows : 186
 MONTE CARLO RUN: 155
Reset re-loads circuit * nmos sweep (sky130) 

Circuit: * nmos sweep (sky130) 

Doing analysis at TEMP = -196.150000 and TNOM = 27.000000


No. of Data Rows : 186
Doing analysis at TEMP = -196.150000 and TNOM = 27.000000


No. of Data Rows : 186
 MONTE CARLO RUN: 156
Reset re-loads circuit * nmos sweep (sky130) 

Circuit: * nmos sweep (sky130) 

Doing analysis at TEMP = -196.150000 and TNOM = 27.000000


No. of Data Rows : 186
Doing analysis at TEMP = -196.150000 and TNOM = 27.000000


No. of Data Rows : 186
 MONTE CARLO RUN: 157
Reset re-loads circuit * nmos sweep (sky130) 

Circuit: * nmos sweep (sky130) 

Doing analysis at TEMP = -196.150000 and TNOM = 27.000000

 Reference value :  0.00000e+00Warning: strange file type "csv" (using "ascii")
Warning: strange file type "csv" (using "ascii")
Warning: strange file type "csv" (using "ascii")
Warning: strange file type "csv" (using "ascii")
Warning: strange file type "csv" (using "ascii")
Warning: strange file type "csv" (using "ascii")

No. of Data Rows : 186
Doing analysis at TEMP = -196.150000 and TNOM = 27.000000


No. of Data Rows : 186
 MONTE CARLO RUN: 158
Reset re-loads circuit * nmos sweep (sky130) 

Circuit: * nmos sweep (sky130) 

Doing analysis at TEMP = -196.150000 and TNOM = 27.000000


No. of Data Rows : 186
Doing analysis at TEMP = -196.150000 and TNOM = 27.000000


No. of Data Rows : 186
 MONTE CARLO RUN: 159
Reset re-loads circuit * nmos sweep (sky130) 

Circuit: * nmos sweep (sky130) 

Doing analysis at TEMP = -196.150000 and TNOM = 27.000000


No. of Data Rows : 186
Doing analysis at TEMP = -196.150000 and TNOM = 27.000000


No. of Data Rows : 186
 MONTE CARLO RUN: 160
Reset re-loads circuit * nmos sweep (sky130) 

Circuit: * nmos sweep (sky130) 

Doing analysis at TEMP = -196.150000 and TNOM = 27.000000

 Reference value :  0.00000e+00Warning: strange file type "csv" (using "ascii")
Warning: strange file type "csv" (using "ascii")
Warning: strange file type "csv" (using "ascii")
Warning: strange file type "csv" (using "ascii")
Warning: strange file type "csv" (using "ascii")
Warning: strange file type "csv" (using "ascii")

No. of Data Rows : 186
Doing analysis at TEMP = -196.150000 and TNOM = 27.000000


No. of Data Rows : 186
 MONTE CARLO RUN: 161
Reset re-loads circuit * nmos sweep (sky130) 

Circuit: * nmos sweep (sky130) 

Doing analysis at TEMP = -196.150000 and TNOM = 27.000000


No. of Data Rows : 186
Doing analysis at TEMP = -196.150000 and TNOM = 27.000000


No. of Data Rows : 186
 MONTE CARLO RUN: 162
Reset re-loads circuit * nmos sweep (sky130) 

Circuit: * nmos sweep (sky130) 

Doing analysis at TEMP = -196.150000 and TNOM = 27.000000


No. of Data Rows : 186
Doing analysis at TEMP = -196.150000 and TNOM = 27.000000


No. of Data Rows : 186
 MONTE CARLO RUN: 163
Reset re-loads circuit * nmos sweep (sky130) 

Circuit: * nmos sweep (sky130) 

Doing analysis at TEMP = -196.150000 and TNOM = 27.000000

 Reference value :  0.00000e+00Warning: strange file type "csv" (using "ascii")
Warning: strange file type "csv" (using "ascii")
Warning: strange file type "csv" (using "ascii")
Warning: strange file type "csv" (using "ascii")
Warning: strange file type "csv" (using "ascii")
Warning: strange file type "csv" (using "ascii")

No. of Data Rows : 186
Doing analysis at TEMP = -196.150000 and TNOM = 27.000000


No. of Data Rows : 186
 MONTE CARLO RUN: 164
Reset re-loads circuit * nmos sweep (sky130) 

Circuit: * nmos sweep (sky130) 

Doing analysis at TEMP = -196.150000 and TNOM = 27.000000


No. of Data Rows : 186
Doing analysis at TEMP = -196.150000 and TNOM = 27.000000


No. of Data Rows : 186
 MONTE CARLO RUN: 165
Reset re-loads circuit * nmos sweep (sky130) 

Circuit: * nmos sweep (sky130) 

Doing analysis at TEMP = -196.150000 and TNOM = 27.000000


No. of Data Rows : 186
Doing analysis at TEMP = -196.150000 and TNOM = 27.000000


No. of Data Rows : 186
 MONTE CARLO RUN: 166
Reset re-loads circuit * nmos sweep (sky130) 

Circuit: * nmos sweep (sky130) 

Doing analysis at TEMP = -196.150000 and TNOM = 27.000000

 Reference value :  0.00000e+00Warning: strange file type "csv" (using "ascii")
Warning: strange file type "csv" (using "ascii")
Warning: strange file type "csv" (using "ascii")
Warning: strange file type "csv" (using "ascii")
Warning: strange file type "csv" (using "ascii")
Warning: strange file type "csv" (using "ascii")

No. of Data Rows : 186
Doing analysis at TEMP = -196.150000 and TNOM = 27.000000


No. of Data Rows : 186
 MONTE CARLO RUN: 167
Reset re-loads circuit * nmos sweep (sky130) 

Circuit: * nmos sweep (sky130) 

Doing analysis at TEMP = -196.150000 and TNOM = 27.000000


No. of Data Rows : 186
Doing analysis at TEMP = -196.150000 and TNOM = 27.000000


No. of Data Rows : 186
 MONTE CARLO RUN: 168
Reset re-loads circuit * nmos sweep (sky130) 

Circuit: * nmos sweep (sky130) 

Doing analysis at TEMP = -196.150000 and TNOM = 27.000000


No. of Data Rows : 186
Doing analysis at TEMP = -196.150000 and TNOM = 27.000000


No. of Data Rows : 186
 MONTE CARLO RUN: 169
Reset re-loads circuit * nmos sweep (sky130) 

Circuit: * nmos sweep (sky130) 

Doing analysis at TEMP = -196.150000 and TNOM = 27.000000

 Reference value :  0.00000e+00Warning: strange file type "csv" (using "ascii")
Warning: strange file type "csv" (using "ascii")
Warning: strange file type "csv" (using "ascii")
Warning: strange file type "csv" (using "ascii")
Warning: strange file type "csv" (using "ascii")
Warning: strange file type "csv" (using "ascii")

No. of Data Rows : 186
Doing analysis at TEMP = -196.150000 and TNOM = 27.000000


No. of Data Rows : 186
 MONTE CARLO RUN: 170
Reset re-loads circuit * nmos sweep (sky130) 

Circuit: * nmos sweep (sky130) 

Doing analysis at TEMP = -196.150000 and TNOM = 27.000000


No. of Data Rows : 186
Doing analysis at TEMP = -196.150000 and TNOM = 27.000000


No. of Data Rows : 186
 MONTE CARLO RUN: 171
Reset re-loads circuit * nmos sweep (sky130) 

Circuit: * nmos sweep (sky130) 

Doing analysis at TEMP = -196.150000 and TNOM = 27.000000


No. of Data Rows : 186
Doing analysis at TEMP = -196.150000 and TNOM = 27.000000


No. of Data Rows : 186
 MONTE CARLO RUN: 172
Reset re-loads circuit * nmos sweep (sky130) 

Circuit: * nmos sweep (sky130) 

Doing analysis at TEMP = -196.150000 and TNOM = 27.000000

 Reference value :  0.00000e+00Warning: strange file type "csv" (using "ascii")
Warning: strange file type "csv" (using "ascii")
Warning: strange file type "csv" (using "ascii")
Warning: strange file type "csv" (using "ascii")
Warning: strange file type "csv" (using "ascii")
Warning: strange file type "csv" (using "ascii")

No. of Data Rows : 186
Doing analysis at TEMP = -196.150000 and TNOM = 27.000000


No. of Data Rows : 186
 MONTE CARLO RUN: 173
Reset re-loads circuit * nmos sweep (sky130) 

Circuit: * nmos sweep (sky130) 

Doing analysis at TEMP = -196.150000 and TNOM = 27.000000


No. of Data Rows : 186
Doing analysis at TEMP = -196.150000 and TNOM = 27.000000


No. of Data Rows : 186
 MONTE CARLO RUN: 174
Reset re-loads circuit * nmos sweep (sky130) 

Circuit: * nmos sweep (sky130) 

Doing analysis at TEMP = -196.150000 and TNOM = 27.000000


No. of Data Rows : 186
Doing analysis at TEMP = -196.150000 and TNOM = 27.000000


No. of Data Rows : 186
 MONTE CARLO RUN: 175
Reset re-loads circuit * nmos sweep (sky130) 

Circuit: * nmos sweep (sky130) 

Doing analysis at TEMP = -196.150000 and TNOM = 27.000000

 Reference value :  0.00000e+00Warning: strange file type "csv" (using "ascii")
Warning: strange file type "csv" (using "ascii")
Warning: strange file type "csv" (using "ascii")
Warning: strange file type "csv" (using "ascii")
Warning: strange file type "csv" (using "ascii")
Warning: strange file type "csv" (using "ascii")

No. of Data Rows : 186
Doing analysis at TEMP = -196.150000 and TNOM = 27.000000


No. of Data Rows : 186
 MONTE CARLO RUN: 176
Reset re-loads circuit * nmos sweep (sky130) 

Circuit: * nmos sweep (sky130) 

Doing analysis at TEMP = -196.150000 and TNOM = 27.000000


No. of Data Rows : 186
Doing analysis at TEMP = -196.150000 and TNOM = 27.000000


No. of Data Rows : 186
 MONTE CARLO RUN: 177
Reset re-loads circuit * nmos sweep (sky130) 

Circuit: * nmos sweep (sky130) 

Doing analysis at TEMP = -196.150000 and TNOM = 27.000000


No. of Data Rows : 186
Doing analysis at TEMP = -196.150000 and TNOM = 27.000000


No. of Data Rows : 186
 MONTE CARLO RUN: 178
Reset re-loads circuit * nmos sweep (sky130) 

Circuit: * nmos sweep (sky130) 

Doing analysis at TEMP = -196.150000 and TNOM = 27.000000

 Reference value :  0.00000e+00Warning: strange file type "csv" (using "ascii")
Warning: strange file type "csv" (using "ascii")
Warning: strange file type "csv" (using "ascii")
Warning: strange file type "csv" (using "ascii")
Warning: strange file type "csv" (using "ascii")
Warning: strange file type "csv" (using "ascii")

No. of Data Rows : 186
Doing analysis at TEMP = -196.150000 and TNOM = 27.000000


No. of Data Rows : 186
 MONTE CARLO RUN: 179
Reset re-loads circuit * nmos sweep (sky130) 

Circuit: * nmos sweep (sky130) 

Doing analysis at TEMP = -196.150000 and TNOM = 27.000000


No. of Data Rows : 186
Doing analysis at TEMP = -196.150000 and TNOM = 27.000000


No. of Data Rows : 186
 MONTE CARLO RUN: 180
Reset re-loads circuit * nmos sweep (sky130) 

Circuit: * nmos sweep (sky130) 

Doing analysis at TEMP = -196.150000 and TNOM = 27.000000


No. of Data Rows : 186
Doing analysis at TEMP = -196.150000 and TNOM = 27.000000


No. of Data Rows : 186
 MONTE CARLO RUN: 181
Reset re-loads circuit * nmos sweep (sky130) 

Circuit: * nmos sweep (sky130) 

Doing analysis at TEMP = -196.150000 and TNOM = 27.000000

 Reference value :  0.00000e+00Warning: strange file type "csv" (using "ascii")
Warning: strange file type "csv" (using "ascii")
Warning: strange file type "csv" (using "ascii")
Warning: strange file type "csv" (using "ascii")
Warning: strange file type "csv" (using "ascii")
Warning: strange file type "csv" (using "ascii")

No. of Data Rows : 186
Doing analysis at TEMP = -196.150000 and TNOM = 27.000000


No. of Data Rows : 186
 MONTE CARLO RUN: 182
Reset re-loads circuit * nmos sweep (sky130) 

Circuit: * nmos sweep (sky130) 

Doing analysis at TEMP = -196.150000 and TNOM = 27.000000


No. of Data Rows : 186
Doing analysis at TEMP = -196.150000 and TNOM = 27.000000


No. of Data Rows : 186
 MONTE CARLO RUN: 183
Reset re-loads circuit * nmos sweep (sky130) 

Circuit: * nmos sweep (sky130) 

Doing analysis at TEMP = -196.150000 and TNOM = 27.000000


No. of Data Rows : 186
Doing analysis at TEMP = -196.150000 and TNOM = 27.000000


No. of Data Rows : 186
 MONTE CARLO RUN: 184
Reset re-loads circuit * nmos sweep (sky130) 

Circuit: * nmos sweep (sky130) 

Doing analysis at TEMP = -196.150000 and TNOM = 27.000000

 Reference value :  0.00000e+00Warning: strange file type "csv" (using "ascii")
Warning: strange file type "csv" (using "ascii")
Warning: strange file type "csv" (using "ascii")
Warning: strange file type "csv" (using "ascii")
Warning: strange file type "csv" (using "ascii")
Warning: strange file type "csv" (using "ascii")

No. of Data Rows : 186
Doing analysis at TEMP = -196.150000 and TNOM = 27.000000


No. of Data Rows : 186
 MONTE CARLO RUN: 185
Reset re-loads circuit * nmos sweep (sky130) 

Circuit: * nmos sweep (sky130) 

Doing analysis at TEMP = -196.150000 and TNOM = 27.000000


No. of Data Rows : 186
Doing analysis at TEMP = -196.150000 and TNOM = 27.000000


No. of Data Rows : 186
 MONTE CARLO RUN: 186
Reset re-loads circuit * nmos sweep (sky130) 

Circuit: * nmos sweep (sky130) 

Doing analysis at TEMP = -196.150000 and TNOM = 27.000000


No. of Data Rows : 186
Doing analysis at TEMP = -196.150000 and TNOM = 27.000000


No. of Data Rows : 186
 MONTE CARLO RUN: 187
Reset re-loads circuit * nmos sweep (sky130) 

Circuit: * nmos sweep (sky130) 

Doing analysis at TEMP = -196.150000 and TNOM = 27.000000

 Reference value :  0.00000e+00Warning: strange file type "csv" (using "ascii")
Warning: strange file type "csv" (using "ascii")
Warning: strange file type "csv" (using "ascii")
Warning: strange file type "csv" (using "ascii")
Warning: strange file type "csv" (using "ascii")
Warning: strange file type "csv" (using "ascii")

No. of Data Rows : 186
Doing analysis at TEMP = -196.150000 and TNOM = 27.000000


No. of Data Rows : 186
 MONTE CARLO RUN: 188
Reset re-loads circuit * nmos sweep (sky130) 

Circuit: * nmos sweep (sky130) 

Doing analysis at TEMP = -196.150000 and TNOM = 27.000000


No. of Data Rows : 186
Doing analysis at TEMP = -196.150000 and TNOM = 27.000000


No. of Data Rows : 186
 MONTE CARLO RUN: 189
Reset re-loads circuit * nmos sweep (sky130) 

Circuit: * nmos sweep (sky130) 

Doing analysis at TEMP = -196.150000 and TNOM = 27.000000


No. of Data Rows : 186
Doing analysis at TEMP = -196.150000 and TNOM = 27.000000


No. of Data Rows : 186
 MONTE CARLO RUN: 190
Reset re-loads circuit * nmos sweep (sky130) 

Circuit: * nmos sweep (sky130) 

Doing analysis at TEMP = -196.150000 and TNOM = 27.000000

 Reference value :  0.00000e+00Warning: strange file type "csv" (using "ascii")
Warning: strange file type "csv" (using "ascii")
Warning: strange file type "csv" (using "ascii")
Warning: strange file type "csv" (using "ascii")

No. of Data Rows : 186
Doing analysis at TEMP = -196.150000 and TNOM = 27.000000


No. of Data Rows : 186
 MONTE CARLO RUN: 191
Reset re-loads circuit * nmos sweep (sky130) 

Circuit: * nmos sweep (sky130) 

Doing analysis at TEMP = -196.150000 and TNOM = 27.000000


No. of Data Rows : 186
Doing analysis at TEMP = -196.150000 and TNOM = 27.000000


No. of Data Rows : 186
 MONTE CARLO RUN: 192
Reset re-loads circuit * nmos sweep (sky130) 

Circuit: * nmos sweep (sky130) 

Doing analysis at TEMP = -196.150000 and TNOM = 27.000000

 Reference value :  0.00000e+00Warning: strange file type "csv" (using "ascii")
Warning: strange file type "csv" (using "ascii")
Warning: strange file type "csv" (using "ascii")
Warning: strange file type "csv" (using "ascii")
Warning: strange file type "csv" (using "ascii")
Warning: strange file type "csv" (using "ascii")

No. of Data Rows : 186
Doing analysis at TEMP = -196.150000 and TNOM = 27.000000


No. of Data Rows : 186
 MONTE CARLO RUN: 193
Reset re-loads circuit * nmos sweep (sky130) 

Circuit: * nmos sweep (sky130) 

Doing analysis at TEMP = -196.150000 and TNOM = 27.000000


No. of Data Rows : 186
Doing analysis at TEMP = -196.150000 and TNOM = 27.000000


No. of Data Rows : 186
 MONTE CARLO RUN: 194
Reset re-loads circuit * nmos sweep (sky130) 

Circuit: * nmos sweep (sky130) 

Doing analysis at TEMP = -196.150000 and TNOM = 27.000000


No. of Data Rows : 186
Doing analysis at TEMP = -196.150000 and TNOM = 27.000000


No. of Data Rows : 186
 MONTE CARLO RUN: 195
Reset re-loads circuit * nmos sweep (sky130) 

Circuit: * nmos sweep (sky130) 

Doing analysis at TEMP = -196.150000 and TNOM = 27.000000

 Reference value :  0.00000e+00Warning: strange file type "csv" (using "ascii")
Warning: strange file type "csv" (using "ascii")
Warning: strange file type "csv" (using "ascii")
Warning: strange file type "csv" (using "ascii")
Warning: strange file type "csv" (using "ascii")
Warning: strange file type "csv" (using "ascii")

No. of Data Rows : 186
Doing analysis at TEMP = -196.150000 and TNOM = 27.000000


No. of Data Rows : 186
 MONTE CARLO RUN: 196
Reset re-loads circuit * nmos sweep (sky130) 

Circuit: * nmos sweep (sky130) 

Doing analysis at TEMP = -196.150000 and TNOM = 27.000000


No. of Data Rows : 186
Doing analysis at TEMP = -196.150000 and TNOM = 27.000000


No. of Data Rows : 186
 MONTE CARLO RUN: 197
Reset re-loads circuit * nmos sweep (sky130) 

Circuit: * nmos sweep (sky130) 

Doing analysis at TEMP = -196.150000 and TNOM = 27.000000


No. of Data Rows : 186
Doing analysis at TEMP = -196.150000 and TNOM = 27.000000


No. of Data Rows : 186
 MONTE CARLO RUN: 198
Reset re-loads circuit * nmos sweep (sky130) 

Circuit: * nmos sweep (sky130) 

Doing analysis at TEMP = -196.150000 and TNOM = 27.000000

 Reference value :  0.00000e+00Warning: strange file type "csv" (using "ascii")
Warning: strange file type "csv" (using "ascii")
Warning: strange file type "csv" (using "ascii")
Warning: strange file type "csv" (using "ascii")
Warning: strange file type "csv" (using "ascii")
Warning: strange file type "csv" (using "ascii")

No. of Data Rows : 186
Doing analysis at TEMP = -196.150000 and TNOM = 27.000000


No. of Data Rows : 186
 MONTE CARLO RUN: 199
Reset re-loads circuit * nmos sweep (sky130) 

Circuit: * nmos sweep (sky130) 

Doing analysis at TEMP = -196.150000 and TNOM = 27.000000


No. of Data Rows : 186
Doing analysis at TEMP = -196.150000 and TNOM = 27.000000


No. of Data Rows : 186
 MONTE CARLO RUN: 200
Reset re-loads circuit * nmos sweep (sky130) 

Circuit: * nmos sweep (sky130) 

Doing analysis at TEMP = -196.150000 and TNOM = 27.000000


No. of Data Rows : 186
Doing analysis at TEMP = -196.150000 and TNOM = 27.000000


No. of Data Rows : 186
 MONTE CARLO RUN: 201
Reset re-loads circuit * nmos sweep (sky130) 

Circuit: * nmos sweep (sky130) 

Doing analysis at TEMP = -196.150000 and TNOM = 27.000000

 Reference value :  0.00000e+00Warning: strange file type "csv" (using "ascii")
Warning: strange file type "csv" (using "ascii")
Warning: strange file type "csv" (using "ascii")
Warning: strange file type "csv" (using "ascii")
Warning: strange file type "csv" (using "ascii")
Warning: strange file type "csv" (using "ascii")

No. of Data Rows : 186
Doing analysis at TEMP = -196.150000 and TNOM = 27.000000


No. of Data Rows : 186
 MONTE CARLO RUN: 202
Reset re-loads circuit * nmos sweep (sky130) 

Circuit: * nmos sweep (sky130) 

Doing analysis at TEMP = -196.150000 and TNOM = 27.000000


No. of Data Rows : 186
Doing analysis at TEMP = -196.150000 and TNOM = 27.000000


No. of Data Rows : 186
 MONTE CARLO RUN: 203
Reset re-loads circuit * nmos sweep (sky130) 

Circuit: * nmos sweep (sky130) 

Doing analysis at TEMP = -196.150000 and TNOM = 27.000000


No. of Data Rows : 186
Doing analysis at TEMP = -196.150000 and TNOM = 27.000000


No. of Data Rows : 186
 MONTE CARLO RUN: 204
Reset re-loads circuit * nmos sweep (sky130) 

Circuit: * nmos sweep (sky130) 

Doing analysis at TEMP = -196.150000 and TNOM = 27.000000

 Reference value :  0.00000e+00Warning: strange file type "csv" (using "ascii")
Warning: strange file type "csv" (using "ascii")
Warning: strange file type "csv" (using "ascii")
Warning: strange file type "csv" (using "ascii")

No. of Data Rows : 186
Doing analysis at TEMP = -196.150000 and TNOM = 27.000000


No. of Data Rows : 186
 MONTE CARLO RUN: 205
Reset re-loads circuit * nmos sweep (sky130) 

Circuit: * nmos sweep (sky130) 

Doing analysis at TEMP = -196.150000 and TNOM = 27.000000


No. of Data Rows : 186
Doing analysis at TEMP = -196.150000 and TNOM = 27.000000


No. of Data Rows : 186
 MONTE CARLO RUN: 206
Reset re-loads circuit * nmos sweep (sky130) 

Circuit: * nmos sweep (sky130) 

Doing analysis at TEMP = -196.150000 and TNOM = 27.000000

 Reference value :  0.00000e+00Warning: strange file type "csv" (using "ascii")
Warning: strange file type "csv" (using "ascii")
Warning: strange file type "csv" (using "ascii")
Warning: strange file type "csv" (using "ascii")
Warning: strange file type "csv" (using "ascii")
Warning: strange file type "csv" (using "ascii")

No. of Data Rows : 186
Doing analysis at TEMP = -196.150000 and TNOM = 27.000000


No. of Data Rows : 186
 MONTE CARLO RUN: 207
Reset re-loads circuit * nmos sweep (sky130) 

Circuit: * nmos sweep (sky130) 

Doing analysis at TEMP = -196.150000 and TNOM = 27.000000


No. of Data Rows : 186
Doing analysis at TEMP = -196.150000 and TNOM = 27.000000


No. of Data Rows : 186
 MONTE CARLO RUN: 208
Reset re-loads circuit * nmos sweep (sky130) 

Circuit: * nmos sweep (sky130) 

Doing analysis at TEMP = -196.150000 and TNOM = 27.000000


No. of Data Rows : 186
Doing analysis at TEMP = -196.150000 and TNOM = 27.000000


No. of Data Rows : 186
 MONTE CARLO RUN: 209
Reset re-loads circuit * nmos sweep (sky130) 

Circuit: * nmos sweep (sky130) 

Doing analysis at TEMP = -196.150000 and TNOM = 27.000000

 Reference value :  0.00000e+00Warning: strange file type "csv" (using "ascii")
Warning: strange file type "csv" (using "ascii")
Warning: strange file type "csv" (using "ascii")
Warning: strange file type "csv" (using "ascii")
Warning: strange file type "csv" (using "ascii")
Warning: strange file type "csv" (using "ascii")

No. of Data Rows : 186
Doing analysis at TEMP = -196.150000 and TNOM = 27.000000


No. of Data Rows : 186
 MONTE CARLO RUN: 210
Reset re-loads circuit * nmos sweep (sky130) 

Circuit: * nmos sweep (sky130) 

Doing analysis at TEMP = -196.150000 and TNOM = 27.000000


No. of Data Rows : 186
Doing analysis at TEMP = -196.150000 and TNOM = 27.000000


No. of Data Rows : 186
 MONTE CARLO RUN: 211
Reset re-loads circuit * nmos sweep (sky130) 

Circuit: * nmos sweep (sky130) 

Doing analysis at TEMP = -196.150000 and TNOM = 27.000000


No. of Data Rows : 186
Doing analysis at TEMP = -196.150000 and TNOM = 27.000000


No. of Data Rows : 186
 MONTE CARLO RUN: 212
[...]

No. of Data Rows : 186
Doing analysis at TEMP = -196.150000 and TNOM = 27.000000

 Reference value :  0.00000e+00Warning: strange file type "csv" (using "ascii")

No. of Data Rows : 186
 MONTE CARLO RUN: 9954
Reset re-loads circuit * nmos sweep (sky130) 

Circuit: * nmos sweep (sky130) 

Doing analysis at TEMP = -196.150000 and TNOM = 27.000000

 Reference value :  0.00000e+00Warning: strange file type "csv" (using "ascii")

No. of Data Rows : 186
Doing analysis at TEMP = -196.150000 and TNOM = 27.000000

 Reference value :  0.00000e+00Warning: strange file type "csv" (using "ascii")

No. of Data Rows : 186
 MONTE CARLO RUN: 9955
Reset re-loads circuit * nmos sweep (sky130) 

Circuit: * nmos sweep (sky130) 

Doing analysis at TEMP = -196.150000 and TNOM = 27.000000

 Reference value :  0.00000e+00Warning: strange file type "csv" (using "ascii")

No. of Data Rows : 186
Doing analysis at TEMP = -196.150000 and TNOM = 27.000000

 Reference value :  0.00000e+00Warning: strange file type "csv" (using "ascii")

No. of Data Rows : 186
 MONTE CARLO RUN: 9956
Reset re-loads circuit * nmos sweep (sky130) 

Circuit: * nmos sweep (sky130) 

Doing analysis at TEMP = -196.150000 and TNOM = 27.000000

 Reference value :  0.00000e+00Warning: strange file type "csv" (using "ascii")

No. of Data Rows : 186
Doing analysis at TEMP = -196.150000 and TNOM = 27.000000

 Reference value :  0.00000e+00Warning: strange file type "csv" (using "ascii")

No. of Data Rows : 186
 MONTE CARLO RUN: 9957
Reset re-loads circuit * nmos sweep (sky130) 

Circuit: * nmos sweep (sky130) 

Doing analysis at TEMP = -196.150000 and TNOM = 27.000000

 Reference value :  0.00000e+00Warning: strange file type "csv" (using "ascii")

No. of Data Rows : 186
Doing analysis at TEMP = -196.150000 and TNOM = 27.000000

 Reference value :  0.00000e+00Warning: strange file type "csv" (using "ascii")

No. of Data Rows : 186
 MONTE CARLO RUN: 9958
Reset re-loads circuit * nmos sweep (sky130) 

Circuit: * nmos sweep (sky130) 

Doing analysis at TEMP = -196.150000 and TNOM = 27.000000

 Reference value :  0.00000e+00Warning: strange file type "csv" (using "ascii")

No. of Data Rows : 186
Doing analysis at TEMP = -196.150000 and TNOM = 27.000000

 Reference value :  0.00000e+00Warning: strange file type "csv" (using "ascii")

No. of Data Rows : 186
 MONTE CARLO RUN: 9959
Reset re-loads circuit * nmos sweep (sky130) 

Circuit: * nmos sweep (sky130) 

Doing analysis at TEMP = -196.150000 and TNOM = 27.000000

 Reference value :  0.00000e+00Warning: strange file type "csv" (using "ascii")

No. of Data Rows : 186
Doing analysis at TEMP = -196.150000 and TNOM = 27.000000

 Reference value :  0.00000e+00Warning: strange file type "csv" (using "ascii")

No. of Data Rows : 186
 MONTE CARLO RUN: 9960
Reset re-loads circuit * nmos sweep (sky130) 

Circuit: * nmos sweep (sky130) 

Doing analysis at TEMP = -196.150000 and TNOM = 27.000000

 Reference value :  0.00000e+00Warning: strange file type "csv" (using "ascii")

No. of Data Rows : 186
Doing analysis at TEMP = -196.150000 and TNOM = 27.000000

 Reference value :  0.00000e+00Warning: strange file type "csv" (using "ascii")

No. of Data Rows : 186
 MONTE CARLO RUN: 9961
Reset re-loads circuit * nmos sweep (sky130) 

Circuit: * nmos sweep (sky130) 

Doing analysis at TEMP = -196.150000 and TNOM = 27.000000

 Reference value :  0.00000e+00Warning: strange file type "csv" (using "ascii")

No. of Data Rows : 186
Doing analysis at TEMP = -196.150000 and TNOM = 27.000000

 Reference value :  0.00000e+00Warning: strange file type "csv" (using "ascii")

No. of Data Rows : 186
 MONTE CARLO RUN: 9962
Reset re-loads circuit * nmos sweep (sky130) 

Circuit: * nmos sweep (sky130) 

Doing analysis at TEMP = -196.150000 and TNOM = 27.000000

 Reference value :  0.00000e+00Warning: strange file type "csv" (using "ascii")

No. of Data Rows : 186
Doing analysis at TEMP = -196.150000 and TNOM = 27.000000

 Reference value :  0.00000e+00Warning: strange file type "csv" (using "ascii")

No. of Data Rows : 186
 MONTE CARLO RUN: 9963
Reset re-loads circuit * nmos sweep (sky130) 

Circuit: * nmos sweep (sky130) 

Doing analysis at TEMP = -196.150000 and TNOM = 27.000000

 Reference value :  0.00000e+00Warning: strange file type "csv" (using "ascii")

No. of Data Rows : 186
Doing analysis at TEMP = -196.150000 and TNOM = 27.000000

 Reference value :  0.00000e+00Warning: strange file type "csv" (using "ascii")

No. of Data Rows : 186
 MONTE CARLO RUN: 9964
Reset re-loads circuit * nmos sweep (sky130) 

Circuit: * nmos sweep (sky130) 

Doing analysis at TEMP = -196.150000 and TNOM = 27.000000

 Reference value :  0.00000e+00Warning: strange file type "csv" (using "ascii")

No. of Data Rows : 186
Doing analysis at TEMP = -196.150000 and TNOM = 27.000000

 Reference value :  0.00000e+00Warning: strange file type "csv" (using "ascii")

No. of Data Rows : 186
 MONTE CARLO RUN: 9965
Reset re-loads circuit * nmos sweep (sky130) 

Circuit: * nmos sweep (sky130) 

Doing analysis at TEMP = -196.150000 and TNOM = 27.000000

 Reference value :  0.00000e+00Warning: strange file type "csv" (using "ascii")

No. of Data Rows : 186
Doing analysis at TEMP = -196.150000 and TNOM = 27.000000

 Reference value :  0.00000e+00Warning: strange file type "csv" (using "ascii")

No. of Data Rows : 186
 MONTE CARLO RUN: 9966
Reset re-loads circuit * nmos sweep (sky130) 

Circuit: * nmos sweep (sky130) 

Doing analysis at TEMP = -196.150000 and TNOM = 27.000000

 Reference value :  0.00000e+00Warning: strange file type "csv" (using "ascii")

No. of Data Rows : 186
Doing analysis at TEMP = -196.150000 and TNOM = 27.000000

 Reference value :  0.00000e+00Warning: strange file type "csv" (using "ascii")

No. of Data Rows : 186
 MONTE CARLO RUN: 9967
Reset re-loads circuit * nmos sweep (sky130) 

Circuit: * nmos sweep (sky130) 

Doing analysis at TEMP = -196.150000 and TNOM = 27.000000

 Reference value :  0.00000e+00Warning: strange file type "csv" (using "ascii")

No. of Data Rows : 186
Doing analysis at TEMP = -196.150000 and TNOM = 27.000000

 Reference value :  0.00000e+00Warning: strange file type "csv" (using "ascii")

No. of Data Rows : 186
 MONTE CARLO RUN: 9968
Reset re-loads circuit * nmos sweep (sky130) 

Circuit: * nmos sweep (sky130) 

Doing analysis at TEMP = -196.150000 and TNOM = 27.000000

 Reference value :  0.00000e+00Warning: strange file type "csv" (using "ascii")

No. of Data Rows : 186
Doing analysis at TEMP = -196.150000 and TNOM = 27.000000

 Reference value :  0.00000e+00Warning: strange file type "csv" (using "ascii")

No. of Data Rows : 186
 MONTE CARLO RUN: 9969
Reset re-loads circuit * nmos sweep (sky130) 

Circuit: * nmos sweep (sky130) 

Doing analysis at TEMP = -196.150000 and TNOM = 27.000000

 Reference value :  0.00000e+00Warning: strange file type "csv" (using "ascii")

No. of Data Rows : 186
Doing analysis at TEMP = -196.150000 and TNOM = 27.000000

 Reference value :  0.00000e+00Warning: strange file type "csv" (using "ascii")

No. of Data Rows : 186
 MONTE CARLO RUN: 9970
Reset re-loads circuit * nmos sweep (sky130) 

Circuit: * nmos sweep (sky130) 

Doing analysis at TEMP = -196.150000 and TNOM = 27.000000

 Reference value :  0.00000e+00Warning: strange file type "csv" (using "ascii")

No. of Data Rows : 186
Doing analysis at TEMP = -196.150000 and TNOM = 27.000000

 Reference value :  0.00000e+00Warning: strange file type "csv" (using "ascii")

No. of Data Rows : 186
 MONTE CARLO RUN: 9971
Reset re-loads circuit * nmos sweep (sky130) 

Circuit: * nmos sweep (sky130) 

Doing analysis at TEMP = -196.150000 and TNOM = 27.000000

 Reference value :  0.00000e+00Warning: strange file type "csv" (using "ascii")

No. of Data Rows : 186
Doing analysis at TEMP = -196.150000 and TNOM = 27.000000

 Reference value :  0.00000e+00Warning: strange file type "csv" (using "ascii")

No. of Data Rows : 186
 MONTE CARLO RUN: 9972
Reset re-loads circuit * nmos sweep (sky130) 

Circuit: * nmos sweep (sky130) 

Doing analysis at TEMP = -196.150000 and TNOM = 27.000000

 Reference value :  0.00000e+00Warning: strange file type "csv" (using "ascii")

No. of Data Rows : 186
Doing analysis at TEMP = -196.150000 and TNOM = 27.000000

 Reference value :  0.00000e+00Warning: strange file type "csv" (using "ascii")

No. of Data Rows : 186
 MONTE CARLO RUN: 9973
Reset re-loads circuit * nmos sweep (sky130) 

Circuit: * nmos sweep (sky130) 

Doing analysis at TEMP = -196.150000 and TNOM = 27.000000

 Reference value :  0.00000e+00Warning: strange file type "csv" (using "ascii")

No. of Data Rows : 186
Doing analysis at TEMP = -196.150000 and TNOM = 27.000000

 Reference value :  0.00000e+00Warning: strange file type "csv" (using "ascii")

No. of Data Rows : 186
 MONTE CARLO RUN: 9974
Reset re-loads circuit * nmos sweep (sky130) 

Circuit: * nmos sweep (sky130) 

Doing analysis at TEMP = -196.150000 and TNOM = 27.000000

 Reference value :  0.00000e+00Warning: strange file type "csv" (using "ascii")

No. of Data Rows : 186
Doing analysis at TEMP = -196.150000 and TNOM = 27.000000

 Reference value :  0.00000e+00Warning: strange file type "csv" (using "ascii")

No. of Data Rows : 186
 MONTE CARLO RUN: 9975
Reset re-loads circuit * nmos sweep (sky130) 

Circuit: * nmos sweep (sky130) 

Doing analysis at TEMP = -196.150000 and TNOM = 27.000000

 Reference value :  0.00000e+00Warning: strange file type "csv" (using "ascii")

No. of Data Rows : 186
Doing analysis at TEMP = -196.150000 and TNOM = 27.000000

 Reference value :  0.00000e+00Warning: strange file type "csv" (using "ascii")

No. of Data Rows : 186
 MONTE CARLO RUN: 9976
Reset re-loads circuit * nmos sweep (sky130) 

Circuit: * nmos sweep (sky130) 

Doing analysis at TEMP = -196.150000 and TNOM = 27.000000

 Reference value :  0.00000e+00Warning: strange file type "csv" (using "ascii")

No. of Data Rows : 186
Doing analysis at TEMP = -196.150000 and TNOM = 27.000000

 Reference value :  0.00000e+00Warning: strange file type "csv" (using "ascii")

No. of Data Rows : 186
 MONTE CARLO RUN: 9977
Reset re-loads circuit * nmos sweep (sky130) 

Circuit: * nmos sweep (sky130) 

Doing analysis at TEMP = -196.150000 and TNOM = 27.000000

 Reference value :  0.00000e+00Warning: strange file type "csv" (using "ascii")

No. of Data Rows : 186
Doing analysis at TEMP = -196.150000 and TNOM = 27.000000

 Reference value :  0.00000e+00Warning: strange file type "csv" (using "ascii")

No. of Data Rows : 186
 MONTE CARLO RUN: 9978
Reset re-loads circuit * nmos sweep (sky130) 

Circuit: * nmos sweep (sky130) 

Doing analysis at TEMP = -196.150000 and TNOM = 27.000000

 Reference value :  0.00000e+00Warning: strange file type "csv" (using "ascii")

No. of Data Rows : 186
Doing analysis at TEMP = -196.150000 and TNOM = 27.000000

 Reference value :  0.00000e+00Warning: strange file type "csv" (using "ascii")

No. of Data Rows : 186
 MONTE CARLO RUN: 9979
Reset re-loads circuit * nmos sweep (sky130) 

Circuit: * nmos sweep (sky130) 

Doing analysis at TEMP = -196.150000 and TNOM = 27.000000

 Reference value :  0.00000e+00Warning: strange file type "csv" (using "ascii")

No. of Data Rows : 186
Doing analysis at TEMP = -196.150000 and TNOM = 27.000000

 Reference value :  0.00000e+00Warning: strange file type "csv" (using "ascii")

No. of Data Rows : 186
 MONTE CARLO RUN: 9980
Reset re-loads circuit * nmos sweep (sky130) 

Circuit: * nmos sweep (sky130) 

Doing analysis at TEMP = -196.150000 and TNOM = 27.000000

 Reference value :  0.00000e+00Warning: strange file type "csv" (using "ascii")

No. of Data Rows : 186
Doing analysis at TEMP = -196.150000 and TNOM = 27.000000

 Reference value :  0.00000e+00Warning: strange file type "csv" (using "ascii")

No. of Data Rows : 186
 MONTE CARLO RUN: 9981
Reset re-loads circuit * nmos sweep (sky130) 

Circuit: * nmos sweep (sky130) 

Doing analysis at TEMP = -196.150000 and TNOM = 27.000000

 Reference value :  0.00000e+00Warning: strange file type "csv" (using "ascii")

No. of Data Rows : 186
Doing analysis at TEMP = -196.150000 and TNOM = 27.000000

 Reference value :  0.00000e+00Warning: strange file type "csv" (using "ascii")

No. of Data Rows : 186
 MONTE CARLO RUN: 9982
Reset re-loads circuit * nmos sweep (sky130) 

Circuit: * nmos sweep (sky130) 

Doing analysis at TEMP = -196.150000 and TNOM = 27.000000

 Reference value :  0.00000e+00Warning: strange file type "csv" (using "ascii")

No. of Data Rows : 186
Doing analysis at TEMP = -196.150000 and TNOM = 27.000000

 Reference value :  0.00000e+00Warning: strange file type "csv" (using "ascii")

No. of Data Rows : 186
 MONTE CARLO RUN: 9983
Reset re-loads circuit * nmos sweep (sky130) 

Circuit: * nmos sweep (sky130) 

Doing analysis at TEMP = -196.150000 and TNOM = 27.000000

 Reference value :  0.00000e+00Warning: strange file type "csv" (using "ascii")

No. of Data Rows : 186
Doing analysis at TEMP = -196.150000 and TNOM = 27.000000

 Reference value :  0.00000e+00Warning: strange file type "csv" (using "ascii")

No. of Data Rows : 186
 MONTE CARLO RUN: 9984
Reset re-loads circuit * nmos sweep (sky130) 

Circuit: * nmos sweep (sky130) 

Doing analysis at TEMP = -196.150000 and TNOM = 27.000000

 Reference value :  0.00000e+00Warning: strange file type "csv" (using "ascii")

No. of Data Rows : 186
Doing analysis at TEMP = -196.150000 and TNOM = 27.000000

 Reference value :  0.00000e+00Warning: strange file type "csv" (using "ascii")

No. of Data Rows : 186
 MONTE CARLO RUN: 9985
Reset re-loads circuit * nmos sweep (sky130) 

Circuit: * nmos sweep (sky130) 

Doing analysis at TEMP = -196.150000 and TNOM = 27.000000

 Reference value :  0.00000e+00Warning: strange file type "csv" (using "ascii")

No. of Data Rows : 186
Doing analysis at TEMP = -196.150000 and TNOM = 27.000000

 Reference value :  0.00000e+00Warning: strange file type "csv" (using "ascii")

No. of Data Rows : 186
 MONTE CARLO RUN: 9986
Reset re-loads circuit * nmos sweep (sky130) 

Circuit: * nmos sweep (sky130) 

Doing analysis at TEMP = -196.150000 and TNOM = 27.000000

 Reference value :  0.00000e+00Warning: strange file type "csv" (using "ascii")

No. of Data Rows : 186
Doing analysis at TEMP = -196.150000 and TNOM = 27.000000

 Reference value :  0.00000e+00Warning: strange file type "csv" (using "ascii")

No. of Data Rows : 186
 MONTE CARLO RUN: 9987
Reset re-loads circuit * nmos sweep (sky130) 

Circuit: * nmos sweep (sky130) 

Doing analysis at TEMP = -196.150000 and TNOM = 27.000000

 Reference value :  0.00000e+00Warning: strange file type "csv" (using "ascii")

No. of Data Rows : 186
Doing analysis at TEMP = -196.150000 and TNOM = 27.000000

 Reference value :  0.00000e+00Warning: strange file type "csv" (using "ascii")

No. of Data Rows : 186
 MONTE CARLO RUN: 9988
Reset re-loads circuit * nmos sweep (sky130) 

Circuit: * nmos sweep (sky130) 

Doing analysis at TEMP = -196.150000 and TNOM = 27.000000

 Reference value :  0.00000e+00Warning: strange file type "csv" (using "ascii")

No. of Data Rows : 186
Doing analysis at TEMP = -196.150000 and TNOM = 27.000000

 Reference value :  0.00000e+00Warning: strange file type "csv" (using "ascii")

No. of Data Rows : 186
 MONTE CARLO RUN: 9989
Reset re-loads circuit * nmos sweep (sky130) 

Circuit: * nmos sweep (sky130) 

Doing analysis at TEMP = -196.150000 and TNOM = 27.000000

 Reference value :  0.00000e+00Warning: strange file type "csv" (using "ascii")

No. of Data Rows : 186
Doing analysis at TEMP = -196.150000 and TNOM = 27.000000

 Reference value :  0.00000e+00Warning: strange file type "csv" (using "ascii")

No. of Data Rows : 186
 MONTE CARLO RUN: 9990
Reset re-loads circuit * nmos sweep (sky130) 

Circuit: * nmos sweep (sky130) 

Doing analysis at TEMP = -196.150000 and TNOM = 27.000000

 Reference value :  0.00000e+00Warning: strange file type "csv" (using "ascii")

No. of Data Rows : 186
Doing analysis at TEMP = -196.150000 and TNOM = 27.000000

 Reference value :  0.00000e+00Warning: strange file type "csv" (using "ascii")

No. of Data Rows : 186
 MONTE CARLO RUN: 9991
Reset re-loads circuit * nmos sweep (sky130) 

Circuit: * nmos sweep (sky130) 

Doing analysis at TEMP = -196.150000 and TNOM = 27.000000

 Reference value :  0.00000e+00Warning: strange file type "csv" (using "ascii")

No. of Data Rows : 186
Doing analysis at TEMP = -196.150000 and TNOM = 27.000000

 Reference value :  0.00000e+00Warning: strange file type "csv" (using "ascii")

No. of Data Rows : 186
 MONTE CARLO RUN: 9992
Reset re-loads circuit * nmos sweep (sky130) 

Circuit: * nmos sweep (sky130) 

Doing analysis at TEMP = -196.150000 and TNOM = 27.000000

 Reference value :  0.00000e+00Warning: strange file type "csv" (using "ascii")

No. of Data Rows : 186
Doing analysis at TEMP = -196.150000 and TNOM = 27.000000

 Reference value :  0.00000e+00Warning: strange file type "csv" (using "ascii")

No. of Data Rows : 186
 MONTE CARLO RUN: 9993
Reset re-loads circuit * nmos sweep (sky130) 

Circuit: * nmos sweep (sky130) 

Doing analysis at TEMP = -196.150000 and TNOM = 27.000000

 Reference value :  0.00000e+00Warning: strange file type "csv" (using "ascii")

No. of Data Rows : 186
Doing analysis at TEMP = -196.150000 and TNOM = 27.000000

 Reference value :  0.00000e+00Warning: strange file type "csv" (using "ascii")

No. of Data Rows : 186
 MONTE CARLO RUN: 9994
Reset re-loads circuit * nmos sweep (sky130) 

Circuit: * nmos sweep (sky130) 

Doing analysis at TEMP = -196.150000 and TNOM = 27.000000

 Reference value :  0.00000e+00Warning: strange file type "csv" (using "ascii")

No. of Data Rows : 186
Doing analysis at TEMP = -196.150000 and TNOM = 27.000000

 Reference value :  0.00000e+00Warning: strange file type "csv" (using "ascii")

No. of Data Rows : 186
 MONTE CARLO RUN: 9995
Reset re-loads circuit * nmos sweep (sky130) 

Circuit: * nmos sweep (sky130) 

Doing analysis at TEMP = -196.150000 and TNOM = 27.000000

 Reference value :  0.00000e+00Warning: strange file type "csv" (using "ascii")

No. of Data Rows : 186
Doing analysis at TEMP = -196.150000 and TNOM = 27.000000

 Reference value :  0.00000e+00Warning: strange file type "csv" (using "ascii")

No. of Data Rows : 186
 MONTE CARLO RUN: 9996
Reset re-loads circuit * nmos sweep (sky130) 

Circuit: * nmos sweep (sky130) 

Doing analysis at TEMP = -196.150000 and TNOM = 27.000000

 Reference value :  0.00000e+00Warning: strange file type "csv" (using "ascii")

No. of Data Rows : 186
Doing analysis at TEMP = -196.150000 and TNOM = 27.000000

 Reference value :  0.00000e+00Warning: strange file type "csv" (using "ascii")

No. of Data Rows : 186
 MONTE CARLO RUN: 9997
Reset re-loads circuit * nmos sweep (sky130) 

Circuit: * nmos sweep (sky130) 

Doing analysis at TEMP = -196.150000 and TNOM = 27.000000

 Reference value :  0.00000e+00Warning: strange file type "csv" (using "ascii")

No. of Data Rows : 186
Doing analysis at TEMP = -196.150000 and TNOM = 27.000000

 Reference value :  0.00000e+00Warning: strange file type "csv" (using "ascii")

No. of Data Rows : 186
 MONTE CARLO RUN: 9998
Reset re-loads circuit * nmos sweep (sky130) 

Circuit: * nmos sweep (sky130) 

Doing analysis at TEMP = -196.150000 and TNOM = 27.000000

 Reference value :  0.00000e+00Warning: strange file type "csv" (using "ascii")

No. of Data Rows : 186
Doing analysis at TEMP = -196.150000 and TNOM = 27.000000

 Reference value :  0.00000e+00Warning: strange file type "csv" (using "ascii")

No. of Data Rows : 186
 MONTE CARLO RUN: 9999
Reset re-loads circuit * nmos sweep (sky130) 

Circuit: * nmos sweep (sky130) 

Doing analysis at TEMP = -196.150000 and TNOM = 27.000000

 Reference value :  0.00000e+00Warning: strange file type "csv" (using "ascii")

No. of Data Rows : 186
Doing analysis at TEMP = -196.150000 and TNOM = 27.000000

 Reference value :  0.00000e+00
No. of Data Rows : 186
ngspice-41 done
